data_zeolite

_audit_creation_method RASPA-1.0
_audit_creation_date 2021-6-6
_audit_author_name ''

_cell_length_a    13.961
_cell_length_b    5.264
_cell_length_c    25.967
_cell_angle_alpha 90
_cell_angle_beta  90
_cell_angle_gamma 90
_cell_volume      19083.3

_symmetry_cell_setting          orthorhombic
_symmetry_space_group_name_Hall '-I 2b 2'
_symmetry_space_group_name_H-M  'I m m a'
_symmetry_Int_Tables_number     74

loop_
_symmetry_equiv_pos_as_xyz
 'x,y,z'
 '-x,-y+1/2,z'
 '-x,y+1/2,-z'
 'x,-y,-z'
 '-x,-y,-z'
 'x,y+1/2,-z'
 'x,-y+1/2,z'
 '-x,y,z'
 'x+1/2,y+1/2,z+1/2'
 '-x+1/2,-y,z+1/2'
 '-x+1/2,y,-z+1/2'
 'x+1/2,-y+1/2,-z+1/2'
 '-x+1/2,-y+1/2,-z+1/2'
 'x+1/2,y,-z+1/2'
 'x+1/2,-y,z+1/2'
 '-x+1/2,y+1/2,z+1/2'

loop_
_atom_site_label
_atom_site_type_symbol
_atom_site_fract_x
_atom_site_fract_y
_atom_site_fract_z
_atom_site_charge
O        O      0.000000000000     0.250000000000     0.057100000000     0     
O        O      0.094000000000     0.250000000000     0.167900000000     0     
O        O      0.000000000000     0.500100000000     0.238900000000     0     
O        O      0.123300000000     0.000000000000     0.000000000000     0     
O        O      0.185100000000     0.250000000000     0.080600000000     0     
O        O      0.250000000000     0.750000000000     0.250000000000     0     
O        O      0.095000000000     0.750000000000     0.309300000000     0     
O        O      0.254200000000     0.500600000000     0.161300000000     0     
T        Si     0.107600000000     0.250000000000     0.034600000000     0     
T        Si     0.000000000000     0.750000000000     0.274300000000     0     
T        Si     0.289600000000     0.750000000000     0.191900000000     0     
T        Si     0.000000000000     0.250000000000     0.203500000000     0     
T        Si     0.198700000000     0.250000000000     0.142100000000     0     


