data_zeolite

_audit_creation_method RASPA-1.0
_audit_creation_date 2021-6-6
_audit_author_name ''

_cell_length_a    8.2065
_cell_length_b    14.1364
_cell_length_c    15.4046
_cell_angle_alpha 90
_cell_angle_beta  119.27
_cell_angle_gamma 90
_cell_volume      24942.8

_symmetry_cell_setting          monoclinic
_symmetry_space_group_name_Hall '-P 2ybc'
_symmetry_space_group_name_H-M  'P 1 21/c 1'
_symmetry_Int_Tables_number     14

loop_
_symmetry_equiv_pos_as_xyz
 'x,y,z'
 '-x,y+1/2,-z+1/2'
 '-x,-y,-z'
 'x,-y+1/2,z+1/2'

loop_
_atom_site_label
_atom_site_type_symbol
_atom_site_fract_x
_atom_site_fract_y
_atom_site_fract_z
_atom_site_charge
T        Si     0.843770000000     0.675580000000     0.240370000000     0     
T        Si     0.212660000000     0.694890000000     0.611030000000     0     
T        Si     0.698180000000     0.947550000000     0.310650000000     0     
T        Si     0.580550000000     0.628260000000     0.420720000000     0     
T        Si     0.854370000000     0.773650000000     0.419230000000     0     
T        Si     0.585730000000     0.828460000000     0.117710000000     0     
T        Si     0.218960000000     0.644660000000     0.236700000000     0     
T        Si     0.705140000000     0.495810000000     0.305890000000     0     
O        O      0.167070000000     0.597200000000     0.648820000000     0     
O        O      0.363080000000     0.673680000000     0.574910000000     0     
O        O      0.023800000000     0.742000000000     0.525350000000     0     
O        O      0.356210000000     0.627220000000     0.353700000000     0     
O        O      0.302290000000     0.769340000000     0.701780000000     0     
O        O      0.664300000000     0.722000000000     0.147090000000     0     
O        O      0.803140000000     0.572000000000     0.268620000000     0     
O        O      0.817590000000     0.886110000000     0.410180000000     0     
O        O      0.664750000000     0.539500000000     0.390120000000     0     
O        O      0.633860000000     0.628310000000     0.536110000000     0     
O        O      0.662920000000     0.722860000000     0.398260000000     0     
O        O      0.687190000000     0.893210000000     0.216100000000     0     
O        O      0.011760000000     0.671170000000     0.214870000000     0     
O        O      0.793920000000     0.049810000000     0.324140000000     0     
O        O      0.487510000000     0.963290000000     0.289520000000     0     
O        O      0.907260000000     0.743930000000     0.335140000000     0     


