data_zeolite

_audit_creation_method RASPA-1.0
_audit_creation_date 2021-6-6
_audit_author_name ''

_cell_length_a    12.566
_cell_length_b    11.662
_cell_length_c    21.93
_cell_angle_alpha 90
_cell_angle_beta  90
_cell_angle_gamma 90
_cell_volume      57847.1

_symmetry_cell_setting          orthorhombic
_symmetry_space_group_name_Hall 'A 2 -2'
_symmetry_space_group_name_H-M  'A m m 2'
_symmetry_Int_Tables_number     38

loop_
_symmetry_equiv_pos_as_xyz
 'x,y,z'
 '-x,-y,z'
 'x,-y,z'
 '-x,y,z'
 'x,y+1/2,z+1/2'
 '-x,-y+1/2,z+1/2'
 'x,-y+1/2,z+1/2'
 '-x,y+1/2,z+1/2'

loop_
_atom_site_label
_atom_site_type_symbol
_atom_site_fract_x
_atom_site_fract_y
_atom_site_fract_z
_atom_site_charge
O        O      0.682100000000     0.387200000000     0.342300000000     0     
O        O      0.640200000000     0.500000000000     0.534900000000     0     
O        O      0.700500000000     0.338700000000     0.458600000000     0     
O        O      0.604900000000     0.305100000000     0.688000000000     0     
O        O      0.853100000000     0.500000000000     0.855800000000     0     
O        O      0.000000000000     0.341500000000     0.841700000000     0     
O        O      0.647500000000     0.285000000000     0.570800000000     0     
O        O      0.803800000000     0.293500000000     0.651100000000     0     
O        O      0.681400000000     0.112300000000     0.644900000000     0     
O        O      0.839400000000     0.353200000000     0.765400000000     0     
O        O      0.500000000000     0.351900000000     0.493700000000     0     
O        O      0.809800000000     0.219100000000     0.377600000000     0     
O        O      0.500000000000     0.500000000000     0.881700000000     0     
O        O      0.000000000000     0.323600000000     0.690200000000     0     
O        O      0.395600000000     0.305700000000     0.886200000000     0     
O        O      0.626900000000     0.500000000000     0.244100000000     0     
O        O      0.500000000000     0.500000000000     0.691300000000     0     
O        O      0.500000000000     0.362700000000     0.786500000000     0     
O        O      0.872600000000     0.500000000000     0.676200000000     0     
O        O      0.500000000000     0.500000000000     0.148700000000     0     
O        O      0.500000000000     0.500000000000     0.339400000000     0     
T        Si     0.500000000000     0.368300000000     0.859800000000     0     
T        Si     0.878800000000     0.367200000000     0.695900000000     0     
T        Si     0.684300000000     0.249700000000     0.638500000000     0     
T        Si     0.500000000000     0.368300000000     0.713300000000     0     
T        Si     0.875100000000     0.369400000000     0.835400000000     0     
T        Si     0.700000000000     0.285600000000     0.390900000000     0     
T        Si     0.621900000000     0.368800000000     0.514400000000     0     
T        Si     0.622200000000     0.500000000000     0.170800000000     0     
T        Si     0.622300000000     0.500000000000     0.317400000000     0     


