data_zeolite

_audit_creation_method RASPA-1.0
_audit_creation_date 2021-6-7
_audit_author_name ''

_cell_length_a    18.534
_cell_length_b    18.534
_cell_length_c    27.134
_cell_angle_alpha 90
_cell_angle_beta  90
_cell_angle_gamma 90
_cell_volume      37283.1

_symmetry_cell_setting          tetragonal
_symmetry_space_group_name_Hall '-I 4 2'
_symmetry_space_group_name_H-M  'I 4/m m m'
_symmetry_Int_Tables_number     139

loop_
_symmetry_equiv_pos_as_xyz
 'x,y,z'
 '-x,-y,z'
 '-y,x,z'
 'y,-x,z'
 '-x,y,-z'
 'x,-y,-z'
 'y,x,-z'
 '-y,-x,-z'
 '-x,-y,-z'
 'x,y,-z'
 'y,-x,-z'
 '-y,x,-z'
 'x,-y,z'
 '-x,y,z'
 '-y,-x,z'
 'y,x,z'
 'x+1/2,y+1/2,z+1/2'
 '-x+1/2,-y+1/2,z+1/2'
 '-y+1/2,x+1/2,z+1/2'
 'y+1/2,-x+1/2,z+1/2'
 '-x+1/2,y+1/2,-z+1/2'
 'x+1/2,-y+1/2,-z+1/2'
 'y+1/2,x+1/2,-z+1/2'
 '-y+1/2,-x+1/2,-z+1/2'
 '-x+1/2,-y+1/2,-z+1/2'
 'x+1/2,y+1/2,-z+1/2'
 'y+1/2,-x+1/2,-z+1/2'
 '-y+1/2,x+1/2,-z+1/2'
 'x+1/2,-y+1/2,z+1/2'
 '-x+1/2,y+1/2,z+1/2'
 '-y+1/2,-x+1/2,z+1/2'
 'y+1/2,x+1/2,z+1/2'

loop_
_atom_site_label
_atom_site_type_symbol
_atom_site_fract_x
_atom_site_fract_y
_atom_site_fract_z
_atom_site_charge
O        O      0.268200000000     0.602400000000     0.185100000000     0     
O        O      0.235300000000     0.595900000000     0.279300000000     0     
O        O      0.323200000000     0.500000000000     0.240600000000     0     
O        O      0.365900000000     0.634100000000     0.252100000000     0     
O        O      0.097900000000     0.268800000000     0.408300000000     0     
O        O      0.134800000000     0.134800000000     0.427700000000     0     
O        O      0.000000000000     0.176000000000     0.438500000000     0     
O        O      0.099200000000     0.222400000000     0.500000000000     0     
O        O      0.318100000000     0.000000000000     0.346800000000     0     
O        O      0.364700000000     0.133500000000     0.341000000000     0     
O        O      0.357400000000     0.000000000000     0.187800000000     0     
O        O      0.399900000000     0.100100000000     0.250000000000     0     
T        Si     0.298200000000     0.583200000000     0.239300000000     0     
T        Si     0.083000000000     0.200500000000     0.443700000000     0     
T        Si     0.295800000000     0.083500000000     0.352800000000     0     
T        Si     0.347100000000     0.082800000000     0.204400000000     0     


