data_zeolite

_audit_creation_method RASPA-1.0
_audit_creation_date 2021-6-7
_audit_author_name ''

_cell_length_a    27.342
_cell_length_b    27.342
_cell_length_c    13.9854
_cell_angle_alpha 90
_cell_angle_beta  90
_cell_angle_gamma 90
_cell_volume      20910.5

_symmetry_cell_setting          tetragonal
_symmetry_space_group_name_Hall '-I 4 2c'
_symmetry_space_group_name_H-M  'I 4/m c m'
_symmetry_Int_Tables_number     140

loop_
_symmetry_equiv_pos_as_xyz
 'x,y,z'
 '-x,-y,z'
 '-y,x,z'
 'y,-x,z'
 '-x,y,-z+1/2'
 'x,-y,-z+1/2'
 'y,x,-z+1/2'
 '-y,-x,-z+1/2'
 '-x,-y,-z'
 'x,y,-z'
 'y,-x,-z'
 '-y,x,-z'
 'x,-y,z+1/2'
 '-x,y,z+1/2'
 '-y,-x,z+1/2'
 'y,x,z+1/2'
 'x+1/2,y+1/2,z+1/2'
 '-x+1/2,-y+1/2,z+1/2'
 '-y+1/2,x+1/2,z+1/2'
 'y+1/2,-x+1/2,z+1/2'
 '-x+1/2,y+1/2,-z'
 'x+1/2,-y+1/2,-z'
 'y+1/2,x+1/2,-z'
 '-y+1/2,-x+1/2,-z'
 '-x+1/2,-y+1/2,-z+1/2'
 'x+1/2,y+1/2,-z+1/2'
 'y+1/2,-x+1/2,-z+1/2'
 '-y+1/2,x+1/2,-z+1/2'
 'x+1/2,-y+1/2,z'
 '-x+1/2,y+1/2,z'
 '-y+1/2,-x+1/2,z'
 'y+1/2,x+1/2,z'

loop_
_atom_site_label
_atom_site_type_symbol
_atom_site_fract_x
_atom_site_fract_y
_atom_site_fract_z
_atom_site_charge
T        Si     0.135300000000     0.179100000000     0.156800000000     0     
T        Si     0.031000000000     0.222400000000     0.156700000000     0     
T        Si     0.105900000000     0.106000000000     0.000000000000     0     
T        Si     0.165700000000     0.254300000000     0.000000000000     0     
T        Si     0.000000000000     0.149900000000     0.000000000000     0     
T        Si     0.062800000000     0.297100000000     0.000000000000     0     
O        O      0.129800000000     0.130100000000     0.094100000000     0     
O        O      0.000000000000     0.237600000000     0.250000000000     0     
O        O      0.000200000000     0.183900000000     0.094000000000     0     
O        O      0.041500000000     0.270700000000     0.094000000000     0     
O        O      0.162000000000     0.220600000000     0.094000000000     0     
O        O      0.082000000000     0.198100000000     0.188900000000     0     
O        O      0.217300000000     0.282700000000     0.000000000000     0     
O        O      0.047900000000     0.115500000000     0.000000000000     0     
O        O      0.115900000000     0.048000000000     0.000000000000     0     
O        O      0.167900000000     0.167900000000     0.250000000000     0     
O        O      0.121600000000     0.293300000000     0.000000000000     0     
O        O      0.046800000000     0.353700000000     0.000000000000     0     


