data_zeolite

_audit_creation_method RASPA-1.0
_audit_creation_date 2021-6-7
_audit_author_name ''

_cell_length_a    27.826
_cell_length_b    26.081
_cell_length_c    13.944
_cell_angle_alpha 90
_cell_angle_beta  90
_cell_angle_gamma 90
_cell_volume      20239.2

_symmetry_cell_setting          orthorhombic
_symmetry_space_group_name_Hall '-F 2 2'
_symmetry_space_group_name_H-M  'F m m m'
_symmetry_Int_Tables_number     69

loop_
_symmetry_equiv_pos_as_xyz
 'x,y,z'
 '-x,-y,z'
 '-x,y,-z'
 'x,-y,-z'
 '-x,-y,-z'
 'x,y,-z'
 'x,-y,z'
 '-x,y,z'
 'x,y+1/2,z+1/2'
 '-x,-y+1/2,z+1/2'
 '-x,y+1/2,-z+1/2'
 'x,-y+1/2,-z+1/2'
 '-x,-y+1/2,-z+1/2'
 'x,y+1/2,-z+1/2'
 'x,-y+1/2,z+1/2'
 '-x,y+1/2,z+1/2'
 'x+1/2,y,z+1/2'
 '-x+1/2,-y,z+1/2'
 '-x+1/2,y,-z+1/2'
 'x+1/2,-y,-z+1/2'
 '-x+1/2,-y,-z+1/2'
 'x+1/2,y,-z+1/2'
 'x+1/2,-y,z+1/2'
 '-x+1/2,y,z+1/2'
 'x+1/2,y+1/2,z'
 '-x+1/2,-y+1/2,z'
 '-x+1/2,y+1/2,-z'
 'x+1/2,-y+1/2,-z'
 '-x+1/2,-y+1/2,-z'
 'x+1/2,y+1/2,-z'
 'x+1/2,-y+1/2,z'
 '-x+1/2,y+1/2,z'

loop_
_atom_site_label
_atom_site_type_symbol
_atom_site_fract_x
_atom_site_fract_y
_atom_site_fract_z
_atom_site_charge
O        O      0.088700000000     0.092000000000     0.182400000000     0     
O        O      0.169900000000     0.097900000000     0.093600000000     0     
O        O      0.158700000000     0.152400000000     0.247900000000     0     
O        O      0.167100000000     0.050600000000     0.257000000000     0     
O        O      0.250000000000     0.000000000000     0.250000000000     0     
O        O      0.304700000000     0.000000000000     0.094600000000     0     
O        O      0.060300000000     0.000000000000     0.133700000000     0     
O        O      0.070800000000     0.070300000000     0.000000000000     0     
O        O      0.000000000000     0.077300000000     0.123900000000     0     
O        O      0.306800000000     0.191000000000     0.903300000000     0     
O        O      0.234500000000     0.151300000000     0.000000000000     0     
O        O      0.250000000000     0.250000000000     0.000000000000     0     
O        O      0.250000000000     0.179500000000     0.250000000000     0     
O        O      0.317000000000     0.250000000000     0.250000000000     0     
O        O      0.238600000000     0.050500000000     0.000000000000     0     
T        Si     0.145700000000     0.098500000000     0.198300000000     0     
T        Si     0.055100000000     0.060100000000     0.109500000000     0     
T        Si     0.303000000000     0.193600000000     0.212000000000     0     
T        Si     0.275500000000     0.194800000000     0.000000000000     0     
T        Si     0.203400000000     0.099400000000     0.000000000000     0     
T        Si     0.304200000000     0.000000000000     0.210100000000     0     
T        Si     0.271600000000     0.000000000000     0.000000000000     0     


