data_zeolite

_audit_creation_method RASPA-1.0
_audit_creation_date 2021-6-7
_audit_author_name ''

_cell_length_a    31.202
_cell_length_b    31.202
_cell_length_c    7.551
_cell_angle_alpha 90
_cell_angle_beta  90
_cell_angle_gamma 120
_cell_volume      25466

_symmetry_cell_setting          hexagonal
_symmetry_space_group_name_Hall '-P 6 2'
_symmetry_space_group_name_H-M  'P 6/m m m'
_symmetry_Int_Tables_number     191

loop_
_symmetry_equiv_pos_as_xyz
 'x,y,z'
 '-y,x-y,z'
 '-x+y,-x,z'
 '-x,-y,z'
 'y,-x+y,z'
 'x-y,x,z'
 'y,x,-z'
 'x-y,-y,-z'
 '-x,-x+y,-z'
 '-y,-x,-z'
 '-x+y,y,-z'
 'x,x-y,-z'
 '-x,-y,-z'
 'y,-x+y,-z'
 'x-y,x,-z'
 'x,y,-z'
 '-y,x-y,-z'
 '-x+y,-x,-z'
 '-y,-x,z'
 '-x+y,y,z'
 'x,x-y,z'
 'y,x,z'
 'x-y,-y,z'
 '-x,-x+y,z'

loop_
_atom_site_label
_atom_site_type_symbol
_atom_site_fract_x
_atom_site_fract_y
_atom_site_fract_z
_atom_site_charge
O        O      0.163100000000     0.163100000000     0.500000000000     0     
O        O      0.189600000000     0.094800000000     0.500000000000     0     
O        O      0.242100000000     0.178300000000     0.325900000000     0     
O        O      0.307500000000     0.153800000000     0.224100000000     0     
O        O      0.276100000000     0.196500000000     0.000000000000     0     
O        O      0.334100000000     0.247600000000     0.263900000000     0     
O        O      0.385400000000     0.305500000000     0.000000000000     0     
O        O      0.403700000000     0.339500000000     0.325900000000     0     
O        O      0.427800000000     0.273700000000     0.224400000000     0     
O        O      0.418300000000     0.418300000000     0.500000000000     0     
O        O      0.487100000000     0.392600000000     0.500000000000     0     
O        O      0.581600000000     0.418400000000     0.500000000000     0     
O        O      0.517600000000     0.339600000000     0.326000000000     0     
O        O      0.495400000000     0.247700000000     0.262700000000     0     
O        O      0.501900000000     0.305900000000     0.000000000000     0     
T        Si     0.290000000000     0.194000000000     0.203700000000     0     
T        Si     0.387700000000     0.291600000000     0.203800000000     0     
T        Si     0.485700000000     0.291700000000     0.203700000000     0     
T        Si     0.209200000000     0.153300000000     0.500000000000     0     
T        Si     0.428500000000     0.372500000000     0.500000000000     0     
T        Si     0.525800000000     0.372700000000     0.500000000000     0     


