data_zeolite

_audit_creation_method RASPA-1.0
_audit_creation_date 2021-6-7
_audit_author_name ''

_cell_length_a    8.312
_cell_length_b    18.729
_cell_length_c    13.392
_cell_angle_alpha 90
_cell_angle_beta  90
_cell_angle_gamma 90
_cell_volume      33356.9

_symmetry_cell_setting          orthorhombic
_symmetry_space_group_name_Hall '-I 2b 2'
_symmetry_space_group_name_H-M  'I m m a'
_symmetry_Int_Tables_number     74

loop_
_symmetry_equiv_pos_as_xyz
 'x,y,z'
 '-x,-y+1/2,z'
 '-x,y+1/2,-z'
 'x,-y,-z'
 '-x,-y,-z'
 'x,y+1/2,-z'
 'x,-y+1/2,z'
 '-x,y,z'
 'x+1/2,y+1/2,z+1/2'
 '-x+1/2,-y,z+1/2'
 '-x+1/2,y,-z+1/2'
 'x+1/2,-y+1/2,-z+1/2'
 '-x+1/2,-y+1/2,-z+1/2'
 'x+1/2,y,-z+1/2'
 'x+1/2,-y,z+1/2'
 '-x+1/2,y+1/2,z+1/2'

loop_
_atom_site_label
_atom_site_type_symbol
_atom_site_fract_x
_atom_site_fract_y
_atom_site_fract_z
_atom_site_charge
O        O      0.795600000000     0.954700000000     0.124500000000     0     
O        O      0.750000000000     0.060900000000     0.250000000000     0     
O        O      0.709000000000     0.080800000000     0.057600000000     0     
O        O      0.000000000000     0.061900000000     0.129700000000     0     
O        O      0.261500000000     0.179900000000     0.919800000000     0     
O        O      0.500000000000     0.088000000000     0.910500000000     0     
O        O      0.750000000000     0.250000000000     0.750000000000     0     
O        O      0.000000000000     0.250000000000     0.870300000000     0     
T        Si     0.813800000000     0.039500000000     0.140600000000     0     
T        Si     0.314100000000     0.098600000000     0.940800000000     0     
T        Si     0.806800000000     0.250000000000     0.864700000000     0     


