data_zeolite

_audit_creation_method RASPA-1.0
_audit_creation_date 2021-6-7
_audit_author_name ''

_cell_length_a    7.54628
_cell_length_b    29.163
_cell_length_c    18.1274
_cell_angle_alpha 90
_cell_angle_beta  90
_cell_angle_gamma 90
_cell_volume      31914.8

_symmetry_cell_setting          orthorhombic
_symmetry_space_group_name_Hall '-C 2c 2'
_symmetry_space_group_name_H-M  'C m c m'
_symmetry_Int_Tables_number     63

loop_
_symmetry_equiv_pos_as_xyz
 'x,y,z'
 '-x,-y,z+1/2'
 '-x,y,-z+1/2'
 'x,-y,-z'
 '-x,-y,-z'
 'x,y,-z+1/2'
 'x,-y,z+1/2'
 '-x,y,z'
 'x+1/2,y+1/2,z'
 '-x+1/2,-y+1/2,z+1/2'
 '-x+1/2,y+1/2,-z+1/2'
 'x+1/2,-y+1/2,-z'
 '-x+1/2,-y+1/2,-z'
 'x+1/2,y+1/2,-z+1/2'
 'x+1/2,-y+1/2,z+1/2'
 '-x+1/2,y+1/2,z'

loop_
_atom_site_label
_atom_site_type_symbol
_atom_site_fract_x
_atom_site_fract_y
_atom_site_fract_z
_atom_site_charge
T        Si     0.705660000000     0.453870000000     0.164490000000     0     
T        Si     0.794910000000     0.263060000000     0.084020000000     0     
T        Si     0.705440000000     0.366120000000     0.064190000000     0     
T        Si     0.500000000000     0.117690000000     0.057280000000     0     
T        Si     0.500000000000     0.205030000000     0.162550000000     0     
T        Si     0.500000000000     0.012970000000     0.086110000000     0     
O        O      0.758640000000     0.316820000000     0.097400000000     0     
O        O      0.174580000000     0.492220000000     0.124620000000     0     
O        O      0.674100000000     0.233540000000     0.139690000000     0     
O        O      0.674540000000     0.123050000000     0.007070000000     0     
O        O      0.737990000000     0.404910000000     0.125840000000     0     
O        O      0.500000000000     0.067860000000     0.095520000000     0     
O        O      0.500000000000     0.156470000000     0.120380000000     0     
O        O      0.000000000000     0.251950000000     0.100670000000     0     
O        O      0.500000000000     0.467900000000     0.158060000000     0     
O        O      0.500000000000     0.365770000000     0.040370000000     0     
O        O      0.500000000000     0.195810000000     0.250000000000     0     
O        O      0.761630000000     0.450600000000     0.250000000000     0     
O        O      0.750000000000     0.250000000000     0.000000000000     0     
O        O      0.500000000000     0.000000000000     0.000000000000     0     


