data_zeolite

_audit_creation_method RASPA-1.0
_audit_creation_date 2021-6-7
_audit_author_name ''

_cell_length_a    13.8968
_cell_length_b    17.4548
_cell_length_c    5.1892
_cell_angle_alpha 90
_cell_angle_beta  90
_cell_angle_gamma 90
_cell_volume      25174.5

_symmetry_cell_setting          orthorhombic
_symmetry_space_group_name_Hall 'C 2 2'
_symmetry_space_group_name_H-M  'C 2 2 2'
_symmetry_Int_Tables_number     21

loop_
_symmetry_equiv_pos_as_xyz
 'x,y,z'
 '-x,-y,z'
 '-x,y,-z'
 'x,-y,-z'
 'x+1/2,y+1/2,z'
 '-x+1/2,-y+1/2,z'
 '-x+1/2,y+1/2,-z'
 'x+1/2,-y+1/2,-z'

loop_
_atom_site_label
_atom_site_type_symbol
_atom_site_fract_x
_atom_site_fract_y
_atom_site_fract_z
_atom_site_charge
T        Si     0.208800000000     0.335600000000     0.958300000000     0     
T        Si     0.204300000000     0.091100000000     0.458700000000     0     
T        Si     0.000000000000     0.171800000000     0.500000000000     0     
T        Si     0.000000000000     0.280500000000     0.000000000000     0     
O        O      0.230300000000     0.366900000000     0.672200000000     0     
O        O      0.241400000000     0.110700000000     0.172200000000     0     
O        O      0.094400000000     0.333900000000     0.008100000000     0     
O        O      0.250000000000     0.250000000000     0.988100000000     0     
O        O      0.004000000000     0.226200000000     0.750000000000     0     
O        O      0.210600000000     0.000000000000     0.500000000000     0     
O        O      0.094400000000     0.118600000000     0.489600000000     0     


