data_zeolite

_audit_creation_method RASPA-1.0
_audit_creation_date 2021-6-7
_audit_author_name ''

_cell_length_a    14
_cell_length_b    7
_cell_length_c    6.482
_cell_angle_alpha 90
_cell_angle_beta  90
_cell_angle_gamma 90
_cell_volume      20327.6

_symmetry_cell_setting          orthorhombic
_symmetry_space_group_name_Hall '-P 2a 2a'
_symmetry_space_group_name_H-M  'P m m a'
_symmetry_Int_Tables_number     51

loop_
_symmetry_equiv_pos_as_xyz
 'x,y,z'
 '-x+1/2,-y,z'
 '-x,y,-z'
 'x+1/2,-y,-z'
 '-x,-y,-z'
 'x+1/2,y,-z'
 'x,-y,z'
 '-x+1/2,y,z'

loop_
_atom_site_label
_atom_site_type_symbol
_atom_site_fract_x
_atom_site_fract_y
_atom_site_fract_z
_atom_site_charge
O        O      0.000000000000     0.000000000000     0.500000000000     0     
O        O      0.155100000000     0.189800000000     0.381800000000     0     
O        O      0.155000000000     0.000000000000     0.736800000000     0     
O        O      0.250000000000     0.500000000000     0.263500000000     0     
O        O      0.250000000000     0.189900000000     0.026800000000     0     
T        Si     0.116100000000     0.000000000000     0.500100000000     0     
T        Si     0.250000000000     0.267900000000     0.263400000000     0     
T        Si     0.250000000000     0.000000000000     0.881800000000     0     


