data_zeolite

_audit_creation_method RASPA-1.0
_audit_creation_date 2021-6-8
_audit_author_name ''

_cell_length_a    13.587
_cell_length_b    13.587
_cell_length_c    7.557
_cell_angle_alpha 90
_cell_angle_beta  90
_cell_angle_gamma 120
_cell_volume      43494

_symmetry_cell_setting          hexagonal
_symmetry_space_group_name_Hall 'P -6 -2'
_symmetry_space_group_name_H-M  'P -6 2 m'
_symmetry_Int_Tables_number     189

loop_
_symmetry_equiv_pos_as_xyz
 'x,y,z'
 '-y,x-y,z'
 '-x+y,-x,z'
 'x,y,-z'
 '-y,x-y,-z'
 '-x+y,-x,-z'
 'y,x,-z'
 'x-y,-y,-z'
 '-x,-x+y,-z'
 'y,x,z'
 'x-y,-y,z'
 '-x,-x+y,z'

loop_
_atom_site_label
_atom_site_type_symbol
_atom_site_fract_x
_atom_site_fract_y
_atom_site_fract_z
_atom_site_charge
O        O      0.299900000000     0.146800000000     0.000000000000     0     
O        O      0.369300000000     0.211200000000     0.326000000000     0     
O        O      0.212200000000     0.000000000000     0.261000000000     0     
O        O      0.164300000000     0.164300000000     0.230300000000     0     
O        O      0.387100000000     0.387100000000     0.500000000000     0     
O        O      0.556700000000     0.346300000000     0.500000000000     0     
T        Si     0.261300000000     0.130600000000     0.204300000000     0     
T        Si     0.420400000000     0.288900000000     0.500000000000     0     
T        Si     0.666700000000     0.333300000000     0.500000000000     0     


