data_zeolite

_audit_creation_method RASPA-1.0
_audit_creation_date 2021-6-7
_audit_author_name ''

_cell_length_a    13.027
_cell_length_b    11.1822
_cell_length_c    9.21893
_cell_angle_alpha 92.35
_cell_angle_beta  107.3
_cell_angle_gamma 104.5
_cell_volume      33253.4

_symmetry_cell_setting          triclinic
_symmetry_space_group_name_Hall '-P 1'
_symmetry_space_group_name_H-M  'P -1'
_symmetry_Int_Tables_number     2

loop_
_symmetry_equiv_pos_as_xyz
 'x,y,z'
 '-x,-y,-z'

loop_
_atom_site_label
_atom_site_type_symbol
_atom_site_fract_x
_atom_site_fract_y
_atom_site_fract_z
_atom_site_charge
T        Si     0.267170000000     0.496790000000     0.230260000000     0     
T        Si     0.272740000000     0.550210000000     0.905340000000     0     
T        Si     0.323660000000     0.391600000000     0.676740000000     0     
T        Si     0.117220000000     0.426480000000     0.419020000000     0     
T        Si     0.407340000000     0.150450000000     0.738240000000     0     
T        Si     0.334400000000     0.873710000000     0.652930000000     0     
T        Si     0.128980000000     0.646980000000     0.630560000000     0     
T        Si     0.476090000000     0.389230000000     0.315970000000     0     
T        Si     0.472100000000     0.768080000000     0.921850000000     0     
T        Si     0.418510000000     0.750180000000     0.421970000000     0     
O        O      0.235220000000     0.500730000000     0.048300000000     0     
O        O      0.358150000000     0.420430000000     0.288540000000     0     
O        O      0.316790000000     0.636130000000     0.318840000000     0     
O        O      0.154810000000     0.429420000000     0.267550000000     0     
O        O      0.368510000000     0.680440000000     0.962620000000     0     
O        O      0.168790000000     0.573800000000     0.774540000000     0     
O        O      0.320460000000     0.448290000000     0.838270000000     0     
O        O      0.344090000000     0.255710000000     0.686770000000     0     
O        O      0.423200000000     0.484270000000     0.632980000000     0     
O        O      0.204460000000     0.377820000000     0.549700000000     0     
O        O      0.119650000000     0.565350000000     0.476750000000     0     
O        O      0.992540000000     0.336330000000     0.381820000000     0     
O        O      0.326140000000     0.015130000000     0.658210000000     0     
O        O      0.518020000000     0.176040000000     0.687010000000     0     
O        O      0.438870000000     0.153660000000     0.921320000000     0     
O        O      0.429370000000     0.862190000000     0.805940000000     0     
O        O      0.216600000000     0.780940000000     0.647820000000     0     
O        O      0.368310000000     0.840230000000     0.505100000000     0     
O        O      0.473300000000     0.318360000000     0.158660000000     0     
O        O      0.494590000000     0.301090000000     0.449780000000     0     


