data_zeolite

_audit_creation_method RASPA-1.0
_audit_creation_date 2021-6-7
_audit_author_name ''

_cell_length_a    9.764
_cell_length_b    25.614
_cell_length_c    8.327
_cell_angle_alpha 90
_cell_angle_beta  90
_cell_angle_gamma 90
_cell_volume      24990.5

_symmetry_cell_setting          orthorhombic
_symmetry_space_group_name_Hall '-C 2c 2'
_symmetry_space_group_name_H-M  'C m c m'
_symmetry_Int_Tables_number     63

loop_
_symmetry_equiv_pos_as_xyz
 'x,y,z'
 '-x,-y,z+1/2'
 '-x,y,-z+1/2'
 'x,-y,-z'
 '-x,-y,-z'
 'x,y,-z+1/2'
 'x,-y,z+1/2'
 '-x,y,z'
 'x+1/2,y+1/2,z'
 '-x+1/2,-y+1/2,z+1/2'
 '-x+1/2,y+1/2,-z+1/2'
 'x+1/2,-y+1/2,-z'
 '-x+1/2,-y+1/2,-z'
 'x+1/2,y+1/2,-z+1/2'
 'x+1/2,-y+1/2,z+1/2'
 '-x+1/2,y+1/2,z'

loop_
_atom_site_label
_atom_site_type_symbol
_atom_site_fract_x
_atom_site_fract_y
_atom_site_fract_z
_atom_site_charge
O        O      0.180600000000     0.346400000000     0.250000000000     0     
O        O      0.365500000000     0.358800000000     0.023300000000     0     
O        O      0.134700000000     0.310000000000     0.960400000000     0     
O        O      0.134600000000     0.411300000000     0.011300000000     0     
O        O      0.500000000000     0.000000000000     0.000000000000     0     
O        O      0.500000000000     0.062800000000     0.250000000000     0     
O        O      0.500000000000     0.246400000000     0.250000000000     0     
O        O      0.500000000000     0.273600000000     0.945300000000     0     
O        O      0.000000000000     0.145700000000     0.250000000000     0     
T        Si     0.204000000000     0.356700000000     0.061400000000     0     
T        Si     0.500000000000     0.059900000000     0.057100000000     0     
T        Si     0.500000000000     0.225000000000     0.068100000000     0     
T        Si     0.000000000000     0.163600000000     0.064700000000     0     


