data_zeolite

_audit_creation_method RASPA-1.0
_audit_creation_date 2021-6-7
_audit_author_name ''

_cell_length_a    12.916
_cell_length_b    12.916
_cell_length_c    26.543
_cell_angle_alpha 90
_cell_angle_beta  90
_cell_angle_gamma 120
_cell_volume      34512.7

_symmetry_cell_setting          trigonal
_symmetry_space_group_name_Hall '-P 3 2"'
_symmetry_space_group_name_H-M  'P -3 m 1'
_symmetry_Int_Tables_number     164

loop_
_symmetry_equiv_pos_as_xyz
 'x,y,z'
 '-y,x-y,z'
 '-x+y,-x,z'
 'y,x,-z'
 'x-y,-y,-z'
 '-x,-x+y,-z'
 '-x,-y,-z'
 'y,-x+y,-z'
 'x-y,x,-z'
 '-y,-x,z'
 '-x+y,y,z'
 'x,x-y,z'

loop_
_atom_site_label
_atom_site_type_symbol
_atom_site_fract_x
_atom_site_fract_y
_atom_site_fract_z
_atom_site_charge
O        O      0.427500000000     0.213800000000     0.106400000000     0     
O        O      0.880600000000     0.761300000000     0.293200000000     0     
O        O      0.236700000000     0.118300000000     0.506800000000     0     
O        O      0.665400000000     0.976000000000     0.650400000000     0     
O        O      0.334700000000     0.310800000000     0.450700000000     0     
O        O      0.356900000000     0.356800000000     0.850300000000     0     
O        O      0.444900000000     0.222400000000     0.400100000000     0     
O        O      0.333900000000     0.310400000000     0.049500000000     0     
O        O      0.452800000000     0.547200000000     0.206600000000     0     
O        O      0.539400000000     0.078800000000     0.400100000000     0     
O        O      0.333100000000     0.309500000000     0.750300000000     0     
O        O      0.880300000000     0.760700000000     0.693100000000     0     
O        O      0.427900000000     0.214000000000     0.807100000000     0     
O        O      0.905200000000     0.452600000000     0.093000000000     0     
O        O      0.118200000000     0.236400000000     0.006800000000     0     
T        Si     0.416000000000     0.333400000000     0.099700000000     0     
T        Si     0.416000000000     0.333300000000     0.800300000000     0     
T        Si     0.415200000000     0.331400000000     0.400100000000     0     
T        Si     0.250000000000     0.250000000000     0.000000000000     0     
T        Si     0.250800000000     0.250800000000     0.700100000000     0     
T        Si     0.250200000000     0.250200000000     0.500000000000     0     


