data_zeolite

_audit_creation_method RASPA-1.0
_audit_creation_date 2021-6-6
_audit_author_name ''

_cell_length_a    32.829
_cell_length_b    14.38
_cell_length_c    8.374
_cell_angle_alpha 90
_cell_angle_beta  90
_cell_angle_gamma 90
_cell_volume      31625.7

_symmetry_cell_setting          orthorhombic
_symmetry_space_group_name_Hall '-C 2c 2'
_symmetry_space_group_name_H-M  'C m c m'
_symmetry_Int_Tables_number     63

loop_
_symmetry_equiv_pos_as_xyz
 'x,y,z'
 '-x,-y,z+1/2'
 '-x,y,-z+1/2'
 'x,-y,-z'
 '-x,-y,-z'
 'x,y,-z+1/2'
 'x,-y,z+1/2'
 '-x,y,z'
 'x+1/2,y+1/2,z'
 '-x+1/2,-y+1/2,z+1/2'
 '-x+1/2,y+1/2,-z+1/2'
 'x+1/2,-y+1/2,-z'
 '-x+1/2,-y+1/2,-z'
 'x+1/2,y+1/2,-z+1/2'
 'x+1/2,-y+1/2,z+1/2'
 '-x+1/2,y+1/2,z'

loop_
_atom_site_label
_atom_site_type_symbol
_atom_site_fract_x
_atom_site_fract_y
_atom_site_fract_z
_atom_site_charge
O        O      0.088000000000     0.109500000000     0.750000000000     0     
O        O      0.040200000000     0.156400000000     0.511100000000     0     
O        O      0.081600000000     0.000000000000     0.500000000000     0     
O        O      0.119700000000     0.160300000000     0.476000000000     0     
O        O      0.214100000000     0.110700000000     0.750000000000     0     
O        O      0.273000000000     0.120800000000     0.537600000000     0     
O        O      0.213600000000     0.000000000000     0.500000000000     0     
O        O      0.199400000000     0.178300000000     0.464100000000     0     
O        O      0.199100000000     0.415100000000     0.750000000000     0     
O        O      0.168000000000     0.500000000000     0.500000000000     0     
O        O      0.154200000000     0.321200000000     0.545400000000     0     
O        O      0.153400000000     0.260900000000     0.250000000000     0     
O        O      0.000000000000     0.888800000000     0.750000000000     0     
O        O      0.000000000000     0.000000000000     0.500000000000     0     
T        Si     0.082400000000     0.106400000000     0.559300000000     0     
T        Si     0.225100000000     0.102300000000     0.563300000000     0     
T        Si     0.186900000000     0.403800000000     0.564900000000     0     
T        Si     0.156600000000     0.229900000000     0.065700000000     0     
T        Si     0.000000000000     0.893500000000     0.558300000000     0     


