data_zeolite

_audit_creation_method RASPA-1.0
_audit_creation_date 2022-1-5
_audit_author_name ''

_cell_length_a    20.7654
_cell_length_b    13.9047
_cell_length_c    12.4002
_cell_angle_alpha 90
_cell_angle_beta  101.32
_cell_angle_gamma 90
_cell_volume      42129

_symmetry_cell_setting          monoclinic
_symmetry_space_group_name_Hall '-P 2y'
_symmetry_space_group_name_H-M  'P 1 2/m 1'
_symmetry_Int_Tables_number     10

loop_
_symmetry_equiv_pos_as_xyz
 'x,y,z'
 '-x,y,-z'
 '-x,-y,-z'
 'x,-y,z'

loop_
_atom_site_label
_atom_site_type_symbol
_atom_site_fract_x
_atom_site_fract_y
_atom_site_fract_z
_atom_site_charge
Si       Si     0.510460000000     0.386820000000     0.130710000000     0     
Si       Si     0.374120000000     0.308300000000     0.154060000000     0     
Si       Si     0.291820000000     0.207560000000     0.300520000000     0     
Si       Si     0.285920000000     0.206020000000     0.550960000000     0     
Si       Si     0.092050000000     0.198150000000     0.730550000000     0     
Si       Si     0.144510000000     0.294070000000     0.542870000000     0     
Si       Si     0.159520000000     0.296600000000     0.943510000000     0     
Si       Si     0.151640000000     0.296020000000     0.194400000000     0     
Si       Si     0.299590000000     0.206510000000     0.951260000000     0     
Si       Si     0.348790000000     0.306820000000     0.766040000000     0     
Si       Si     0.934620000000     0.197320000000     0.662090000000     0     
Si       Si     0.201400000000     0.500000000000     0.508340000000     0     
Si       Si     0.273920000000     0.500000000000     0.731910000000     0     
Si       Si     0.287290000000     0.500000000000     0.100890000000     0     
Si       Si     0.181570000000     0.500000000000     0.258600000000     0     
Si       Si     0.183410000000     0.500000000000     0.882830000000     0     
Si       Si     0.241570000000     0.000000000000     0.230530000000     0     
Si       Si     0.255360000000     0.000000000000     0.595800000000     0     
Si       Si     0.161140000000     0.000000000000     0.751920000000     0     
Si       Si     0.241000000000     0.000000000000     0.979500000000     0     
Si       Si     0.861040000000     0.000000000000     0.616320000000     0     
O        O      0.500000000000     0.370180000000     0.000000000000     0     
O        O      0.517260000000     0.500000000000     0.158070000000     0     
O        O      0.449970000000     0.340760000000     0.176980000000     0     
O        O      0.358960000000     0.237630000000     0.049260000000     0     
O        O      0.331640000000     0.404920000000     0.125500000000     0     
O        O      0.352890000000     0.253960000000     0.256300000000     0     
O        O      0.225480000000     0.264300000000     0.248060000000     0     
O        O      0.305180000000     0.219480000000     0.432250000000     0     
O        O      0.284070000000     0.095080000000     0.269650000000     0     
O        O      0.220890000000     0.000000000000     0.098390000000     0     
O        O      0.175810000000     0.000000000000     0.281020000000     0     
O        O      0.331020000000     0.275640000000     0.638600000000     0     
O        O      0.209310000000     0.231120000000     0.541350000000     0     
O        O      0.298210000000     0.095380000000     0.588200000000     0     
O        O      0.192440000000     0.000000000000     0.496670000000     0     
O        O      0.229970000000     0.000000000000     0.710480000000     0     
O        O      0.119940000000     0.094260000000     0.705320000000     0     
O        O      0.175840000000     0.000000000000     0.884380000000     0     
O        O      0.119460000000     0.277490000000     0.656380000000     0     
O        O      0.013120000000     0.196010000000     0.701270000000     0     
O        O      0.086250000000     0.269260000000     0.440440000000     0     
O        O      0.160420000000     0.406180000000     0.529790000000     0     
O        O      0.267970000000     0.500000000000     0.600450000000     0     
O        O      0.311250000000     0.404840000000     0.784920000000     0     
O        O      0.202010000000     0.500000000000     0.762630000000     0     
O        O      0.235580000000     0.500000000000     0.181790000000     0     
O        O      0.250240000000     0.500000000000     0.974160000000     0     
O        O      0.900330000000     0.226990000000     0.762840000000     0     
O        O      0.142740000000     0.404370000000     0.898960000000     0     
O        O      0.236270000000     0.272830000000     0.952880000000     0     
O        O      0.140350000000     0.286990000000     0.062650000000     0     
O        O      0.137760000000     0.404580000000     0.229200000000     0     
O        O      0.216990000000     0.500000000000     0.386300000000     0     
O        O      0.324540000000     0.222290000000     0.837460000000     0     
O        O      0.283160000000     0.094750000000     0.965820000000     0     
O        O      0.116400000000     0.222470000000     0.859040000000     0     
O        O      0.907680000000     0.092810000000     0.619700000000     0     
O        O      0.425780000000     0.328280000000     0.808020000000     0     


