data_zeolite

_audit_creation_method RASPA-1.0
_audit_creation_date 2021-6-7
_audit_author_name ''

_cell_length_a    13.1231
_cell_length_b    13.3734
_cell_length_c    21.262
_cell_angle_alpha 90
_cell_angle_beta  123.642
_cell_angle_gamma 90
_cell_volume      37278.2

_symmetry_cell_setting          monoclinic
_symmetry_space_group_name_Hall '-C 2y'
_symmetry_space_group_name_H-M  'C 1 2/m 1'
_symmetry_Int_Tables_number     12

loop_
_symmetry_equiv_pos_as_xyz
 'x,y,z'
 '-x,y,-z'
 '-x,-y,-z'
 'x,-y,z'
 'x+1/2,y+1/2,z'
 '-x+1/2,y+1/2,-z'
 '-x+1/2,-y+1/2,-z'
 'x+1/2,-y+1/2,z'

loop_
_atom_site_label
_atom_site_type_symbol
_atom_site_fract_x
_atom_site_fract_y
_atom_site_fract_z
_atom_site_charge
T        Si     0.446020000000     0.278000000000     0.048240000000     0     
T        Si     0.297260000000     0.117160000000     0.073190000000     0     
T        Si     0.107960000000     0.114970000000     0.204740000000     0     
T        Si     0.360840000000     0.113420000000     0.235620000000     0     
T        Si     0.090480000000     0.246280000000     0.317800000000     0     
T        Si     0.316960000000     0.384930000000     0.397480000000     0     
T        Si     0.075490000000     0.115070000000     0.431250000000     0     
O        O      0.553500000000     0.331210000000     0.124480000000     0     
O        O      0.500000000000     0.241880000000     0.000000000000     0     
O        O      0.336730000000     0.356590000000     0.999410000000     0     
O        O      0.397400000000     0.181900000000     0.069690000000     0     
O        O      0.304890000000     0.145170000000     0.149350000000     0     
O        O      0.325150000000     0.000000000000     0.073190000000     0     
O        O      0.255160000000     0.119910000000     0.252170000000     0     
O        O      0.064410000000     0.000000000000     0.191190000000     0     
O        O      0.059400000000     0.170930000000     0.250330000000     0     
O        O      0.472060000000     0.186340000000     0.292480000000     0     
O        O      0.409850000000     0.000000000000     0.248420000000     0     
O        O      0.126180000000     0.183030000000     0.391770000000     0     
O        O      0.203400000000     0.316800000000     0.336470000000     0     
O        O      0.289540000000     0.500000000000     0.370880000000     0     
O        O      0.334710000000     0.374110000000     0.478400000000     0     
O        O      0.439790000000     0.349290000000     0.404120000000     0     
O        O      0.071350000000     0.000000000000     0.407690000000     0     


