data_zeolite

_audit_creation_method RASPA-1.0
_audit_creation_date 2021-6-7
_audit_author_name ''

_cell_length_a    5.258
_cell_length_b    22.579
_cell_length_c    13.977
_cell_angle_alpha 90
_cell_angle_beta  90
_cell_angle_gamma 90
_cell_volume      33187.1

_symmetry_cell_setting          orthorhombic
_symmetry_space_group_name_Hall '-P 2ab 2a'
_symmetry_space_group_name_H-M  'P m m n'
_symmetry_Int_Tables_number     59

loop_
_symmetry_equiv_pos_as_xyz
 'x,y,z'
 '-x+1/2,-y+1/2,z'
 '-x,y+1/2,-z'
 'x+1/2,-y,-z'
 '-x,-y,-z'
 'x+1/2,y+1/2,-z'
 'x,-y+1/2,z'
 '-x+1/2,y,z'

loop_
_atom_site_label
_atom_site_type_symbol
_atom_site_fract_x
_atom_site_fract_y
_atom_site_fract_z
_atom_site_charge
O        O      0.750000000000     0.808100000000     0.210400000000     0     
O        O      0.000000000000     0.750000000000     0.077400000000     0     
O        O      0.250000000000     0.691700000000     0.944800000000     0     
O        O      0.750000000000     0.608500000000     0.340700000000     0     
O        O      0.000000000000     0.592500000000     0.180300000000     0     
O        O      0.750000000000     0.566400000000     0.517600000000     0     
O        O      0.999900000000     0.511700000000     0.380100000000     0     
O        O      0.750000000000     0.416100000000     0.981500000000     0     
O        O      0.500000000000     0.393800000000     0.140100000000     0     
O        O      0.250000000000     0.427000000000     0.293000000000     0     
O        O      0.250000000000     0.494800000000     0.139300000000     0     
T        Si     0.750000000000     0.750000000000     0.143700000000     0     
T        Si     0.250000000000     0.750000000000     0.011100000000     0     
T        Si     0.750000000000     0.621400000000     0.227300000000     0     
T        Si     0.750000000000     0.549600000000     0.405700000000     0     
T        Si     0.750000000000     0.378000000000     0.078700000000     0     
T        Si     0.250000000000     0.470700000000     0.384000000000     0     
T        Si     0.250000000000     0.427600000000     0.177800000000     0     
T        Si     0.250000000000     0.565800000000     0.129900000000     0     


