data_zeolite

_audit_creation_method RASPA-1.0
_audit_creation_date 2021-6-8
_audit_author_name ''

_cell_length_a    20.014
_cell_length_b    23.58
_cell_length_c    12.669
_cell_angle_alpha 90
_cell_angle_beta  90
_cell_angle_gamma 90
_cell_volume      71746.6

_symmetry_cell_setting          orthorhombic
_symmetry_space_group_name_Hall '-I 2b 2'
_symmetry_space_group_name_H-M  'I m m a'
_symmetry_Int_Tables_number     74

loop_
_symmetry_equiv_pos_as_xyz
 'x,y,z'
 '-x,-y+1/2,z'
 '-x,y+1/2,-z'
 'x,-y,-z'
 '-x,-y,-z'
 'x,y+1/2,-z'
 'x,-y+1/2,z'
 '-x,y,z'
 'x+1/2,y+1/2,z+1/2'
 '-x+1/2,-y,z+1/2'
 '-x+1/2,y,-z+1/2'
 'x+1/2,-y+1/2,-z+1/2'
 '-x+1/2,-y+1/2,-z+1/2'
 'x+1/2,y,-z+1/2'
 'x+1/2,-y,z+1/2'
 '-x+1/2,y+1/2,z+1/2'

loop_
_atom_site_label
_atom_site_type_symbol
_atom_site_fract_x
_atom_site_fract_y
_atom_site_fract_z
_atom_site_charge
O        O      0.200200000000     0.144900000000     0.563000000000     0     
O        O      0.120900000000     0.176200000000     0.717900000000     0     
O        O      0.203300000000     0.250000000000     0.632200000000     0     
O        O      0.250000000000     0.167100000000     0.750000000000     0     
O        O      0.103800000000     0.144100000000     0.915200000000     0     
O        O      0.000000000000     0.169600000000     0.797500000000     0     
O        O      0.081700000000     0.250000000000     0.860700000000     0     
O        O      0.209000000000     0.070500000000     0.408800000000     0     
O        O      0.176200000000     0.962900000000     0.400000000000     0     
O        O      0.122900000000     0.035400000000     0.266500000000     0     
O        O      0.250000000000     0.007600000000     0.250000000000     0     
O        O      0.101100000000     0.072000000000     0.073700000000     0     
O        O      0.082500000000     0.964300000000     0.120100000000     0     
O        O      0.000000000000     0.041500000000     0.193500000000     0     
O        O      0.298600000000     0.070800000000     0.560500000000     0     
T        Si     0.193500000000     0.184700000000     0.665700000000     0     
T        Si     0.076700000000     0.184900000000     0.822900000000     0     
T        Si     0.189600000000     0.019200000000     0.330800000000     0     
T        Si     0.076600000000     0.028300000000     0.163400000000     0     
T        Si     0.221000000000     0.080900000000     0.533000000000     0     
T        Si     0.122200000000     0.080600000000     0.952100000000     0     


