data_zeolite

_audit_creation_method RASPA-1.0
_audit_creation_date 2021-6-7
_audit_author_name ''

_cell_length_a    20.753
_cell_length_b    9.804
_cell_length_c    20.009
_cell_angle_alpha 90
_cell_angle_beta  90
_cell_angle_gamma 90
_cell_volume      48853

_symmetry_cell_setting          orthorhombic
_symmetry_space_group_name_Hall '-C 2c 2'
_symmetry_space_group_name_H-M  'C m c m'
_symmetry_Int_Tables_number     63

loop_
_symmetry_equiv_pos_as_xyz
 'x,y,z'
 '-x,-y,z+1/2'
 '-x,y,-z+1/2'
 'x,-y,-z'
 '-x,-y,-z'
 'x,y,-z+1/2'
 'x,-y,z+1/2'
 '-x,y,z'
 'x+1/2,y+1/2,z'
 '-x+1/2,-y+1/2,z+1/2'
 '-x+1/2,y+1/2,-z+1/2'
 'x+1/2,-y+1/2,-z'
 '-x+1/2,-y+1/2,-z'
 'x+1/2,y+1/2,-z+1/2'
 'x+1/2,-y+1/2,z+1/2'
 '-x+1/2,y+1/2,z'

loop_
_atom_site_label
_atom_site_type_symbol
_atom_site_fract_x
_atom_site_fract_y
_atom_site_fract_z
_atom_site_charge
O        O      0.261400000000     0.867300000000     0.143800000000     0     
O        O      0.331400000000     0.935000000000     0.250000000000     0     
O        O      0.294100000000     0.126200000000     0.164000000000     0     
O        O      0.383300000000     0.945700000000     0.128800000000     0     
O        O      0.098700000000     0.500000000000     0.000000000000     0     
O        O      0.000000000000     0.422200000000     0.075800000000     0     
O        O      0.092000000000     0.244700000000     0.043600000000     0     
O        O      0.327000000000     0.276300000000     0.058800000000     0     
O        O      0.211800000000     0.158100000000     0.063700000000     0     
O        O      0.127800000000     0.000000000000     0.000000000000     0     
T        Si     0.317500000000     0.968500000000     0.171700000000     0     
T        Si     0.076700000000     0.403200000000     0.062000000000     0     
T        Si     0.267700000000     0.232200000000     0.107600000000     0     
T        Si     0.151200000000     0.156500000000     0.012100000000     0     


