data_zeolite

_audit_creation_method RASPA-1.0
_audit_creation_date 2021-6-6
_audit_author_name ''

_cell_length_a    20.09
_cell_length_b    19.738
_cell_length_c    13.142
_cell_angle_alpha 90
_cell_angle_beta  90
_cell_angle_gamma 90
_cell_volume      41690.3

_symmetry_cell_setting          orthorhombic
_symmetry_space_group_name_Hall '-P 2ac 2n'
_symmetry_space_group_name_H-M  'P n m a'
_symmetry_Int_Tables_number     62

loop_
_symmetry_equiv_pos_as_xyz
 'x,y,z'
 '-x+1/2,-y,z+1/2'
 '-x,y+1/2,-z'
 'x+1/2,-y+1/2,-z+1/2'
 '-x,-y,-z'
 'x+1/2,y,-z+1/2'
 'x,-y+1/2,z'
 '-x+1/2,y+1/2,z+1/2'

loop_
_atom_site_label
_atom_site_type_symbol
_atom_site_fract_x
_atom_site_fract_y
_atom_site_fract_z
_atom_site_charge
O        O      0.501200000000     0.069900000000     0.701800000000     0     
O        O      0.387500000000     0.074300000000     0.800800000000     0     
O        O      0.399500000000     0.136600000000     0.625100000000     0     
O        O      0.397200000000     0.003400000000     0.632600000000     0     
O        O      0.329000000000     0.038500000000     0.972200000000     0     
O        O      0.329700000000     0.955500000000     0.815500000000     0     
O        O      0.257100000000     0.066300000000     0.810600000000     0     
O        O      0.291000000000     0.129600000000     0.106000000000     0     
O        O      0.203400000000     0.045500000000     0.027500000000     0     
O        O      0.293600000000     0.001000000000     0.156400000000     0     
O        O      0.107500000000     0.126500000000     0.088300000000     0     
O        O      0.084600000000     0.037000000000     0.944300000000     0     
O        O      0.130100000000     0.078100000000     0.767000000000     0     
O        O      0.072800000000     0.958900000000     0.783200000000     0     
O        O      0.220100000000     0.131300000000     0.645600000000     0     
O        O      0.491100000000     0.854800000000     0.716900000000     0     
O        O      0.368100000000     0.831100000000     0.774300000000     0     
O        O      0.426300000000     0.750000000000     0.643100000000     0     
O        O      0.321700000000     0.861100000000     0.956100000000     0     
O        O      0.241000000000     0.858200000000     0.799000000000     0     
O        O      0.294300000000     0.750000000000     0.057900000000     0     
O        O      0.197600000000     0.831300000000     0.000300000000     0     
O        O      0.094800000000     0.750000000000     0.020500000000     0     
O        O      0.080900000000     0.867000000000     0.927500000000     0     
O        O      0.117700000000     0.837000000000     0.740600000000     0     
O        O      0.211600000000     0.750000000000     0.691300000000     0     
T        Si     0.421400000000     0.071100000000     0.689800000000     0     
T        Si     0.325900000000     0.033600000000     0.850000000000     0     
T        Si     0.279200000000     0.053600000000     0.065500000000     0     
T        Si     0.124600000000     0.051400000000     0.048100000000     0     
T        Si     0.072100000000     0.036000000000     0.823300000000     0     
T        Si     0.203400000000     0.068700000000     0.719700000000     0     
T        Si     0.419500000000     0.827400000000     0.680500000000     0     
T        Si     0.315200000000     0.876500000000     0.836100000000     0     
T        Si     0.273300000000     0.827800000000     0.040200000000     0     
T        Si     0.118500000000     0.827900000000     0.018300000000     0     
T        Si     0.065700000000     0.879400000000     0.808700000000     0     
T        Si     0.194700000000     0.828800000000     0.709200000000     0     


