data_zeolite

_audit_creation_method RASPA-1.0
_audit_creation_date 2021-6-7
_audit_author_name ''

_cell_length_a    15.9499
_cell_length_b    15.9499
_cell_length_c    31.0796
_cell_angle_alpha 90
_cell_angle_beta  90
_cell_angle_gamma 120
_cell_volume      27389.4

_symmetry_cell_setting          hexagonal
_symmetry_space_group_name_Hall '-P 6c 2c'
_symmetry_space_group_name_H-M  'P 63/m m c'
_symmetry_Int_Tables_number     194

loop_
_symmetry_equiv_pos_as_xyz
 'x,y,z'
 '-y,x-y,z'
 '-x+y,-x,z'
 '-x,-y,z+1/2'
 'y,-x+y,z+1/2'
 'x-y,x,z+1/2'
 'y,x,-z'
 'x-y,-y,-z'
 '-x,-x+y,-z'
 '-y,-x,-z+1/2'
 '-x+y,y,-z+1/2'
 'x,x-y,-z+1/2'
 '-x,-y,-z'
 'y,-x+y,-z'
 'x-y,x,-z'
 'x,y,-z+1/2'
 '-y,x-y,-z+1/2'
 '-x+y,-x,-z+1/2'
 '-y,-x,z'
 '-x+y,y,z'
 'x,x-y,z'
 'y,x,z+1/2'
 'x-y,-y,z+1/2'
 '-x,-x+y,z+1/2'

loop_
_atom_site_label
_atom_site_type_symbol
_atom_site_fract_x
_atom_site_fract_y
_atom_site_fract_z
_atom_site_charge
T        Si     0.474600000000     0.333500000000     0.031900000000     0     
T        Si     0.371100000000     0.436900000000     0.064000000000     0     
T        Si     0.225300000000     0.450700000000     0.114900000000     0     
T        Si     0.272100000000     0.544300000000     0.201800000000     0     
T        Si     0.333300000000     0.666700000000     0.076500000000     0     
O        O      0.440700000000     0.330500000000     0.982900000000     0     
O        O      0.588000000000     0.412000000000     0.036300000000     0     
O        O      0.456600000000     0.228300000000     0.045500000000     0     
O        O      0.413100000000     0.363700000000     0.062900000000     0     
O        O      0.456600000000     0.543400000000     0.077100000000     0     
O        O      0.282500000000     0.397900000000     0.097700000000     0     
O        O      0.229500000000     0.458900000000     0.166700000000     0     
O        O      0.387700000000     0.612300000000     0.196100000000     0     
O        O      0.250500000000     0.501100000000     0.250000000000     0     
O        O      0.278700000000     0.557300000000     0.094200000000     0     
O        O      0.333300000000     0.666700000000     0.024700000000     0     


