data_zeolite

_audit_creation_method RASPA-1.0
_audit_creation_date 2021-6-6
_audit_author_name ''

_cell_length_a    8.7503
_cell_length_b    9.6479
_cell_length_c    10.2719
_cell_angle_alpha 105.72
_cell_angle_beta  100.19
_cell_angle_gamma 97.02
_cell_volume      29095.7

_symmetry_cell_setting          triclinic
_symmetry_space_group_name_Hall '-P 1'
_symmetry_space_group_name_H-M  'P -1'
_symmetry_Int_Tables_number     2

loop_
_symmetry_equiv_pos_as_xyz
 'x,y,z'
 '-x,-y,-z'

loop_
_atom_site_label
_atom_site_type_symbol
_atom_site_fract_x
_atom_site_fract_y
_atom_site_fract_z
_atom_site_charge
T        Si     0.546200000000     0.307400000000     0.183000000000     0     
T        Si     0.554300000000     0.398500000000     0.802200000000     0     
T        Si     0.572000000000     0.066000000000     0.323300000000     0     
T        Si     0.306200000000     0.851400000000     0.359400000000     0     
T        Si     0.328200000000     0.183600000000     0.886700000000     0     
T        Si     0.995500000000     0.722000000000     0.142600000000     0     
T        Si     0.812700000000     0.416000000000     0.060000000000     0     
O        O      0.555000000000     0.221200000000     0.297500000000     0     
O        O      0.688800000000     0.451700000000     0.943100000000     0     
O        O      0.399700000000     0.976600000000     0.311600000000     0     
O        O      0.399700000000     0.309500000000     0.827300000000     0     
O        O      0.422600000000     0.209400000000     0.043200000000     0     
O        O      0.122900000000     0.815600000000     0.281700000000     0     
O        O      0.489700000000     0.460600000000     0.241300000000     0     
O        O      0.718300000000     0.339000000000     0.150400000000     0     
O        O      0.144600000000     0.188700000000     0.884800000000     0     
O        O      0.679000000000     0.092800000000     0.475600000000     0     
O        O      0.654900000000     0.973900000000     0.208900000000     0     
O        O      0.381600000000     0.705500000000     0.319500000000     0     
O        O      0.923400000000     0.567100000000     0.158500000000     0     
O        O      0.919600000000     0.307800000000     0.986700000000     0     


