data_zeolite

_audit_creation_method RASPA-1.0
_audit_creation_date 2021-6-7
_audit_author_name ''

_cell_length_a    25.221
_cell_length_b    5.256
_cell_length_c    15.022
_cell_angle_alpha 90
_cell_angle_beta  103.89
_cell_angle_gamma 90
_cell_volume      38662.2

_symmetry_cell_setting          monoclinic
_symmetry_space_group_name_Hall '-C 2y'
_symmetry_space_group_name_H-M  'C 1 2/m 1'
_symmetry_Int_Tables_number     12

loop_
_symmetry_equiv_pos_as_xyz
 'x,y,z'
 '-x,y,-z'
 '-x,-y,-z'
 'x,-y,z'
 'x+1/2,y+1/2,z'
 '-x+1/2,y+1/2,-z'
 '-x+1/2,-y+1/2,-z'
 'x+1/2,-y+1/2,z'

loop_
_atom_site_label
_atom_site_type_symbol
_atom_site_fract_x
_atom_site_fract_y
_atom_site_fract_z
_atom_site_charge
O        O      0.486800000000     0.500000000000     0.597800000000     0     
O        O      0.567700000000     0.249900000000     0.704900000000     0     
O        O      0.584000000000     0.500000000000     0.562300000000     0     
O        O      0.605400000000     0.750000000000     0.423300000000     0     
O        O      0.670100000000     0.000000000000     0.341400000000     0     
O        O      0.759200000000     0.250000000000     0.332000000000     0     
O        O      0.703800000000     0.000000000000     0.188900000000     0     
O        O      0.635100000000     0.000000000000     0.835700000000     0     
O        O      0.650200000000     0.000000000000     0.668000000000     0     
O        O      0.689900000000     0.000000000000     0.521500000000     0     
O        O      0.691600000000     0.000000000000     0.008800000000     0     
O        O      0.727400000000     0.749900000000     0.883500000000     0     
T        Si     0.551500000000     0.500000000000     0.642400000000     0     
T        Si     0.577000000000     0.500000000000     0.452900000000     0     
T        Si     0.723000000000     0.000000000000     0.299300000000     0     
T        Si     0.605400000000     0.000000000000     0.728200000000     0     
T        Si     0.642800000000     0.000000000000     0.427800000000     0     
T        Si     0.705300000000     0.000000000000     0.631900000000     0     
T        Si     0.695300000000     0.000000000000     0.903200000000     0     
T        Si     0.734800000000     0.000000000000     0.106900000000     0     


