data_zeolite

_audit_creation_method RASPA-1.0
_audit_creation_date 2021-6-12
_audit_author_name ''

_cell_length_a    21.995
_cell_length_b    21.995
_cell_length_c    21.159
_cell_angle_alpha 90
_cell_angle_beta  90
_cell_angle_gamma 120
_cell_volume      70919.2

_symmetry_cell_setting          hexagonal
_symmetry_space_group_name_Hall '-P 6 2'
_symmetry_space_group_name_H-M  'P 6/m m m'
_symmetry_Int_Tables_number     191

loop_
_symmetry_equiv_pos_as_xyz
 'x,y,z'
 '-y,x-y,z'
 '-x+y,-x,z'
 '-x,-y,z'
 'y,-x+y,z'
 'x-y,x,z'
 'y,x,-z'
 'x-y,-y,-z'
 '-x,-x+y,-z'
 '-y,-x,-z'
 '-x+y,y,-z'
 'x,x-y,-z'
 '-x,-y,-z'
 'y,-x+y,-z'
 'x-y,x,-z'
 'x,y,-z'
 '-y,x-y,-z'
 '-x+y,-x,-z'
 '-y,-x,z'
 '-x+y,y,z'
 'x,x-y,z'
 'y,x,z'
 'x-y,-y,z'
 '-x,-x+y,z'

loop_
_atom_site_label
_atom_site_type_symbol
_atom_site_fract_x
_atom_site_fract_y
_atom_site_fract_z
_atom_site_charge
O        O      0.129000000000     0.257900000000     0.740400000000     0     
O        O      0.106700000000     0.357700000000     0.698800000000     0     
O        O      0.000000000000     0.232400000000     0.723600000000     0     
O        O      0.076400000000     0.314200000000     0.816600000000     0     
O        O      0.649000000000     0.519000000000     0.262800000000     0     
O        O      0.676200000000     0.543700000000     0.384100000000     0     
O        O      0.766400000000     0.532800000000     0.309700000000     0     
O        O      0.104200000000     0.438800000000     0.855200000000     0     
O        O      0.000000000000     0.416800000000     0.779900000000     0     
O        O      0.089700000000     0.544900000000     0.817800000000     0     
O        O      0.087500000000     0.451600000000     0.500000000000     0     
O        O      0.099200000000     0.549600000000     0.578300000000     0     
O        O      0.000000000000     0.418500000000     0.595400000000     0     
O        O      0.799000000000     0.598100000000     0.136900000000     0     
O        O      0.747300000000     0.656500000000     0.062000000000     0     
O        O      0.000000000000     0.231000000000     0.000000000000     0     
O        O      0.134300000000     0.268600000000     0.000000000000     0     
T        Si     0.078000000000     0.290700000000     0.744900000000     0     
T        Si     0.710200000000     0.559200000000     0.314400000000     0     
T        Si     0.080800000000     0.470300000000     0.797500000000     0     
T        Si     0.079700000000     0.468900000000     0.572500000000     0     
T        Si     0.743500000000     0.625300000000     0.131600000000     0     
T        Si     0.079100000000     0.296500000000     0.000000000000     0     


