data_zeolite

_audit_creation_method RASPA-1.0
_audit_creation_date 2021-6-7
_audit_author_name ''

_cell_length_a    9.127
_cell_length_b    17.48
_cell_length_c    10.377
_cell_angle_alpha 90
_cell_angle_beta  124.939
_cell_angle_gamma 90
_cell_volume      43428.9

_symmetry_cell_setting          monoclinic
_symmetry_space_group_name_Hall '-C 2y'
_symmetry_space_group_name_H-M  'C 1 2/m 1'
_symmetry_Int_Tables_number     12

loop_
_symmetry_equiv_pos_as_xyz
 'x,y,z'
 '-x,y,-z'
 '-x,-y,-z'
 'x,-y,z'
 'x+1/2,y+1/2,z'
 '-x+1/2,y+1/2,-z'
 '-x+1/2,-y+1/2,-z'
 'x+1/2,-y+1/2,z'

loop_
_atom_site_label
_atom_site_type_symbol
_atom_site_fract_x
_atom_site_fract_y
_atom_site_fract_z
_atom_site_charge
O        O      0.818400000000     0.114100000000     0.126400000000     0     
O        O      0.039000000000     0.000000000000     0.192100000000     0     
O        O      0.164700000000     0.137600000000     0.300700000000     0     
O        O      0.000000000000     0.109100000000     0.000000000000     0     
O        O      0.278400000000     0.269200000000     0.264100000000     0     
O        O      0.250000000000     0.250000000000     0.500000000000     0     
O        O      0.500000000000     0.177700000000     0.500000000000     0     
O        O      0.500000000000     0.174900000000     0.000000000000     0     
O        O      0.750000000000     0.250000000000     0.000000000000     0     
T        Si     0.004900000000     0.090000000000     0.154100000000     0     
T        Si     0.297600000000     0.208700000000     0.389900000000     0     
T        Si     0.710700000000     0.192500000000     0.097700000000     0     


