data_zeolite

_audit_creation_method RASPA-1.0
_audit_creation_date 2021-6-7
_audit_author_name ''

_cell_length_a    5.021
_cell_length_b    8.151
_cell_length_c    13.977
_cell_angle_alpha 90
_cell_angle_beta  90
_cell_angle_gamma 90
_cell_volume      27457.2

_symmetry_cell_setting          orthorhombic
_symmetry_space_group_name_Hall '-P 2 2n'
_symmetry_space_group_name_H-M  'P n n m'
_symmetry_Int_Tables_number     58

loop_
_symmetry_equiv_pos_as_xyz
 'x,y,z'
 '-x,-y,z'
 '-x+1/2,y+1/2,-z+1/2'
 'x+1/2,-y+1/2,-z+1/2'
 '-x,-y,-z'
 'x,y,-z'
 'x+1/2,-y+1/2,z+1/2'
 '-x+1/2,y+1/2,z+1/2'

loop_
_atom_site_label
_atom_site_type_symbol
_atom_site_fract_x
_atom_site_fract_y
_atom_site_fract_z
_atom_site_charge
O        O      0.137000000000     0.299800000000     0.271300000000     0     
O        O      0.277700000000     0.267600000000     0.095200000000     0     
O        O      0.500000000000     0.500000000000     0.198100000000     0     
O        O      0.000000000000     0.000000000000     0.500000000000     0     
O        O      0.500000000000     0.000000000000     0.500000000000     0     
T        Si     0.388200000000     0.315100000000     0.200000000000     0     
T        Si     0.250100000000     0.877200000000     0.500000000000     0     


