data_zeolite

_audit_creation_method RASPA-1.0
_audit_creation_date 2021-6-7
_audit_author_name ''

_cell_length_a    21.119
_cell_length_b    12.971
_cell_length_c    9.672
_cell_angle_alpha 90
_cell_angle_beta  108.367
_cell_angle_gamma 90
_cell_volume      30174.3

_symmetry_cell_setting          monoclinic
_symmetry_space_group_name_Hall '-C 2y'
_symmetry_space_group_name_H-M  'C 1 2/m 1'
_symmetry_Int_Tables_number     12

loop_
_symmetry_equiv_pos_as_xyz
 'x,y,z'
 '-x,y,-z'
 '-x,-y,-z'
 'x,-y,z'
 'x+1/2,y+1/2,z'
 '-x+1/2,y+1/2,-z'
 '-x+1/2,-y+1/2,-z'
 'x+1/2,-y+1/2,z'

loop_
_atom_site_label
_atom_site_type_symbol
_atom_site_fract_x
_atom_site_fract_y
_atom_site_fract_z
_atom_site_charge
O        O      0.660100000000     0.135600000000     0.189600000000     0     
O        O      0.737500000000     0.000000000000     0.119500000000     0     
O        O      0.779000000000     0.190000000000     0.181000000000     0     
O        O      0.682500000000     0.149400000000     0.937800000000     0     
O        O      0.840100000000     0.200800000000     0.650700000000     0     
O        O      0.747100000000     0.123600000000     0.747700000000     0     
O        O      0.812800000000     0.000000000000     0.627700000000     0     
O        O      0.728400000000     0.134100000000     0.466200000000     0     
O        O      0.597800000000     0.868900000000     0.388800000000     0     
O        O      0.623700000000     0.190300000000     0.660800000000     0     
O        O      0.500000000000     0.154200000000     0.500000000000     0     
O        O      0.584300000000     0.000000000000     0.585200000000     0     
T        Si     0.714700000000     0.119000000000     0.106800000000     0     
T        Si     0.782700000000     0.114500000000     0.623300000000     0     
T        Si     0.661000000000     0.825000000000     0.348100000000     0     
T        Si     0.576400000000     0.118700000000     0.533900000000     0     
T        Si     0.693400000000     0.806400000000     0.791400000000     0     


