data_zeolite

_audit_creation_method RASPA-1.0
_audit_creation_date 2021-6-8
_audit_author_name ''

_cell_length_a    18.889
_cell_length_b    22.8023
_cell_length_c    29.0815
_cell_angle_alpha 90
_cell_angle_beta  90
_cell_angle_gamma 90
_cell_volume      50103.1

_symmetry_cell_setting          orthorhombic
_symmetry_space_group_name_Hall '-C 2c 2'
_symmetry_space_group_name_H-M  'C m c m'
_symmetry_Int_Tables_number     63

loop_
_symmetry_equiv_pos_as_xyz
 'x,y,z'
 '-x,-y,z+1/2'
 '-x,y,-z+1/2'
 'x,-y,-z'
 '-x,-y,-z'
 'x,y,-z+1/2'
 'x,-y,z+1/2'
 '-x,y,z'
 'x+1/2,y+1/2,z'
 '-x+1/2,-y+1/2,z+1/2'
 '-x+1/2,y+1/2,-z+1/2'
 'x+1/2,-y+1/2,-z'
 '-x+1/2,-y+1/2,-z'
 'x+1/2,y+1/2,-z+1/2'
 'x+1/2,-y+1/2,z+1/2'
 '-x+1/2,y+1/2,z'

loop_
_atom_site_label
_atom_site_type_symbol
_atom_site_fract_x
_atom_site_fract_y
_atom_site_fract_z
_atom_site_charge
T        Si     0.138250000000     0.283470000000     0.449250000000     0     
T        Si     0.361180000000     0.240310000000     0.447340000000     0     
T        Si     0.229740000000     0.171270000000     0.435490000000     0     
T        Si     0.229780000000     0.147380000000     0.538800000000     0     
T        Si     0.139500000000     0.077220000000     0.392910000000     0     
T        Si     0.146420000000     0.034350000000     0.547160000000     0     
T        Si     0.077950000000     0.107100000000     0.300230000000     0     
T        Si     0.000000000000     0.266490000000     0.396770000000     0     
T        Si     0.000000000000     0.220240000000     0.600620000000     0     
T        Si     0.000000000000     0.134740000000     0.436190000000     0     
T        Si     0.000000000000     0.105020000000     0.540840000000     0     
T        Si     0.000000000000     0.217260000000     0.301710000000     0     
O        O      0.069630000000     0.296960000000     0.418090000000     0     
O        O      0.166160000000     0.217990000000     0.439110000000     0     
O        O      0.199750000000     0.329460000000     0.435940000000     0     
O        O      0.121360000000     0.288630000000     0.503420000000     0     
O        O      0.431220000000     0.243790000000     0.415960000000     0     
O        O      0.301720000000     0.203530000000     0.420000000000     0     
O        O      0.333860000000     0.306570000000     0.454440000000     0     
O        O      0.207120000000     0.118760000000     0.401550000000     0     
O        O      0.245810000000     0.141640000000     0.484640000000     0     
O        O      0.205710000000     0.083690000000     0.556740000000     0     
O        O      0.126560000000     0.075560000000     0.338220000000     0     
O        O      0.070020000000     0.101670000000     0.418440000000     0     
O        O      0.152710000000     0.011370000000     0.410820000000     0     
O        O      0.069450000000     0.064510000000     0.545720000000     0     
O        O      0.162550000000     0.000000000000     0.500000000000     0     
O        O      0.000000000000     0.078290000000     0.301150000000     0     
O        O      0.111830000000     0.097060000000     0.250000000000     0     
O        O      0.069030000000     0.176510000000     0.308870000000     0     
O        O      0.000000000000     0.266600000000     0.341340000000     0     
O        O      0.000000000000     0.199810000000     0.414920000000     0     
O        O      0.000000000000     0.154610000000     0.580270000000     0     
O        O      0.000000000000     0.137070000000     0.491490000000     0     
O        O      0.000000000000     0.242710000000     0.250000000000     0     
O        O      0.000000000000     0.217190000000     0.655950000000     0     


