data_zeolite

_audit_creation_method RASPA-1.0
_audit_creation_date 2021-6-7
_audit_author_name ''

_cell_length_a    7.156
_cell_length_b    7.156
_cell_length_c    41.842
_cell_angle_alpha 90
_cell_angle_beta  90
_cell_angle_gamma 90
_cell_volume      34282.5

_symmetry_cell_setting          tetragonal
_symmetry_space_group_name_Hall 'I 4bw 2bw -1bw'
_symmetry_space_group_name_H-M  'I 41/a m d'
_symmetry_Int_Tables_number     141

loop_
_symmetry_equiv_pos_as_xyz
 'x,y,z'
 '-x+1/2,-y+1/2,z+1/2'
 '-y,x+1/2,z+1/4'
 'y+1/2,-x,z+3/4'
 '-x+1/2,y,-z+3/4'
 'x,-y+1/2,-z+1/4'
 'y+1/2,x+1/2,-z+1/2'
 '-y,-x,-z'
 '-x,-y+1/2,-z+1/4'
 'x+1/2,y,-z+3/4'
 'y,-x,-z'
 '-y+1/2,x+1/2,-z+1/2'
 'x+1/2,-y+1/2,z+1/2'
 '-x,y,z'
 '-y+1/2,-x,z+3/4'
 'y,x+1/2,z+1/4'
 'x+1/2,y+1/2,z+1/2'
 '-x,-y,z'
 '-y+1/2,x,z+3/4'
 'y,-x+1/2,z+1/4'
 '-x,y+1/2,-z+1/4'
 'x+1/2,-y,-z+3/4'
 'y,x,-z'
 '-y+1/2,-x+1/2,-z+1/2'
 '-x+1/2,-y,-z+3/4'
 'x,y+1/2,-z+1/4'
 'y+1/2,-x+1/2,-z+1/2'
 '-y,x,-z'
 'x,-y,z'
 '-x+1/2,y+1/2,z+1/2'
 '-y,-x+1/2,z+1/4'
 'y+1/2,x,z+3/4'

loop_
_atom_site_label
_atom_site_type_symbol
_atom_site_fract_x
_atom_site_fract_y
_atom_site_fract_z
_atom_site_charge
O        O      0.316400000000     0.000000000000     0.227700000000     0     
O        O      0.183400000000     0.815800000000     0.178200000000     0     
O        O      0.500000000000     0.000000000000     0.173600000000     0     
O        O      0.000000000000     0.000000000000     0.078800000000     0     
O        O      0.000000000000     0.250000000000     0.125000000000     0     
T        Si     0.294200000000     0.000000000000     0.189400000000     0     
T        Si     0.000000000000     0.219800000000     0.086900000000     0     
T        Si     0.500000000000     0.000000000000     0.250000000000     0     


