data_zeolite

_audit_creation_method RASPA-1.0
_audit_creation_date 2021-6-7
_audit_author_name ''

_cell_length_a    14.709
_cell_length_b    27.536
_cell_length_c    8.317
_cell_angle_alpha 90
_cell_angle_beta  90
_cell_angle_gamma 90
_cell_volume      26948.9

_symmetry_cell_setting          orthorhombic
_symmetry_space_group_name_Hall '-I 2 2c'
_symmetry_space_group_name_H-M  'I b a m'
_symmetry_Int_Tables_number     72

loop_
_symmetry_equiv_pos_as_xyz
 'x,y,z'
 '-x,-y,z'
 '-x+1/2,y+1/2,-z'
 'x+1/2,-y+1/2,-z'
 '-x,-y,-z'
 'x,y,-z'
 'x+1/2,-y+1/2,z'
 '-x+1/2,y+1/2,z'
 'x+1/2,y+1/2,z+1/2'
 '-x+1/2,-y+1/2,z+1/2'
 '-x,y,-z+1/2'
 'x,-y,-z+1/2'
 '-x+1/2,-y+1/2,-z+1/2'
 'x+1/2,y+1/2,-z+1/2'
 'x,-y,z+1/2'
 '-x,y,z+1/2'

loop_
_atom_site_label
_atom_site_type_symbol
_atom_site_fract_x
_atom_site_fract_y
_atom_site_fract_z
_atom_site_charge
O        O      0.000000000000     0.797200000000     0.750000000000     0     
O        O      0.827100000000     0.816700000000     0.700700000000     0     
O        O      0.878700000000     0.729000000000     0.791500000000     0     
O        O      0.915700000000     0.760000000000     0.500000000000     0     
O        O      0.825400000000     0.641500000000     0.287900000000     0     
O        O      0.000000000000     0.659300000000     0.250000000000     0     
O        O      0.891100000000     0.657400000000     0.000000000000     0     
O        O      0.695300000000     0.655300000000     0.500000000000     0     
O        O      0.674600000000     0.590100000000     0.728000000000     0     
O        O      0.500000000000     0.570700000000     0.750000000000     0     
O        O      0.392800000000     0.558200000000     0.500000000000     0     
O        O      0.379500000000     0.500000000000     0.750000000000     0     
T        Si     0.904800000000     0.775900000000     0.685200000000     0     
T        Si     0.899400000000     0.672000000000     0.186800000000     0     
T        Si     0.716900000000     0.642400000000     0.684800000000     0     
T        Si     0.400000000000     0.554700000000     0.692400000000     0     


