data_zeolite

_audit_creation_method RASPA-1.0
_audit_creation_date 2021-6-7
_audit_author_name ''

_cell_length_a    21.233
_cell_length_b    13.302
_cell_length_c    12.676
_cell_angle_alpha 90
_cell_angle_beta  90
_cell_angle_gamma 90
_cell_volume      42962.7

_symmetry_cell_setting          orthorhombic
_symmetry_space_group_name_Hall '-C 2 2'
_symmetry_space_group_name_H-M  'C m m m'
_symmetry_Int_Tables_number     65

loop_
_symmetry_equiv_pos_as_xyz
 'x,y,z'
 '-x,-y,z'
 '-x,y,-z'
 'x,-y,-z'
 '-x,-y,-z'
 'x,y,-z'
 'x,-y,z'
 '-x,y,z'
 'x+1/2,y+1/2,z'
 '-x+1/2,-y+1/2,z'
 '-x+1/2,y+1/2,-z'
 'x+1/2,-y+1/2,-z'
 '-x+1/2,-y+1/2,-z'
 'x+1/2,y+1/2,-z'
 'x+1/2,-y+1/2,z'
 '-x+1/2,y+1/2,z'

loop_
_atom_site_label
_atom_site_type_symbol
_atom_site_fract_x
_atom_site_fract_y
_atom_site_fract_z
_atom_site_charge
O        O      0.099000000000     0.172300000000     0.103700000000     0     
O        O      0.000000000000     0.110000000000     0.000000000000     0     
O        O      0.102200000000     0.000000000000     0.000000000000     0     
O        O      0.091300000000     0.126800000000     0.500000000000     0     
O        O      0.079500000000     0.000000000000     0.342300000000     0     
O        O      0.118100000000     0.184700000000     0.307500000000     0     
O        O      0.000000000000     0.150300000000     0.361800000000     0     
O        O      0.210000000000     0.126300000000     0.181200000000     0     
O        O      0.172200000000     0.314300000000     0.178800000000     0     
O        O      0.299400000000     0.000000000000     0.126200000000     0     
O        O      0.268900000000     0.149100000000     0.000000000000     0     
T        Si     0.072000000000     0.115600000000     0.377700000000     0     
T        Si     0.150000000000     0.199400000000     0.193300000000     0     
T        Si     0.276500000000     0.115300000000     0.121300000000     0     
T        Si     0.075600000000     0.113500000000     0.000000000000     0     


