data_zeolite

_audit_creation_method RASPA-1.0
_audit_creation_date 2021-6-7
_audit_author_name ''

_cell_length_a    13.164
_cell_length_b    21.584
_cell_length_c    5.257
_cell_angle_alpha 90
_cell_angle_beta  90
_cell_angle_gamma 90
_cell_volume      29873.6

_symmetry_cell_setting          orthorhombic
_symmetry_space_group_name_Hall '-C 2c 2'
_symmetry_space_group_name_H-M  'C m c m'
_symmetry_Int_Tables_number     63

loop_
_symmetry_equiv_pos_as_xyz
 'x,y,z'
 '-x,-y,z+1/2'
 '-x,y,-z+1/2'
 'x,-y,-z'
 '-x,-y,-z'
 'x,y,-z+1/2'
 'x,-y,z+1/2'
 '-x,y,z'
 'x+1/2,y+1/2,z'
 '-x+1/2,-y+1/2,z+1/2'
 '-x+1/2,y+1/2,-z+1/2'
 'x+1/2,-y+1/2,-z'
 '-x+1/2,-y+1/2,-z'
 'x+1/2,y+1/2,-z+1/2'
 'x+1/2,-y+1/2,z+1/2'
 '-x+1/2,y+1/2,z'

loop_
_atom_site_label
_atom_site_type_symbol
_atom_site_fract_x
_atom_site_fract_y
_atom_site_fract_z
_atom_site_charge
O        O      0.688600000000     0.101200000000     0.750000000000     0     
O        O      0.641100000000     0.000000000000     0.500000000000     0     
O        O      0.500000000000     0.061200000000     0.750000000000     0     
O        O      0.364500000000     0.201500000000     0.000000000000     0     
O        O      0.191500000000     0.198600000000     0.750000000000     0     
O        O      0.500000000000     0.266800000000     0.250000000000     0     
T        Si     0.617400000000     0.040500000000     0.750000000000     0     
T        Si     0.307900000000     0.175800000000     0.750000000000     0     
T        Si     0.615900000000     0.242800000000     0.250000000000     0     


