data_zeolite

_audit_creation_method RASPA-1.0
_audit_creation_date 2021-6-6
_audit_author_name ''

_cell_length_a    16.4388
_cell_length_b    4.9453
_cell_length_c    22.783
_cell_angle_alpha 90
_cell_angle_beta  90
_cell_angle_gamma 90
_cell_volume      44451.5

_symmetry_cell_setting          orthorhombic
_symmetry_space_group_name_Hall '-P 2 2n'
_symmetry_space_group_name_H-M  'P n n m'
_symmetry_Int_Tables_number     58

loop_
_symmetry_equiv_pos_as_xyz
 'x,y,z'
 '-x,-y,z'
 '-x+1/2,y+1/2,-z+1/2'
 'x+1/2,-y+1/2,-z+1/2'
 '-x,-y,-z'
 'x,y,-z'
 'x+1/2,-y+1/2,z+1/2'
 '-x+1/2,y+1/2,z+1/2'

loop_
_atom_site_label
_atom_site_type_symbol
_atom_site_fract_x
_atom_site_fract_y
_atom_site_fract_z
_atom_site_charge
T        Si     0.445130000000     0.263300000000     0.254110000000     0     
T        Si     0.276360000000     0.109380000000     0.285760000000     0     
T        Si     0.592030000000     0.088810000000     0.068990000000     0     
T        Si     0.353540000000     0.396690000000     0.135280000000     0     
O        O      0.410360000000     0.374060000000     0.192570000000     0     
O        O      0.500000000000     0.000000000000     0.242100000000     0     
O        O      0.500000000000     0.500000000000     0.282440000000     0     
O        O      0.370280000000     0.187700000000     0.296650000000     0     
O        O      0.271550000000     0.872690000000     0.237340000000     0     
O        O      0.235070000000     0.004370000000     0.345690000000     0     
O        O      0.500000000000     0.000000000000     0.083200000000     0     
O        O      0.653480000000     0.896980000000     0.105110000000     0     
O        O      0.605980000000     0.397570000000     0.088960000000     0     
O        O      0.610400000000     0.057630000000     0.000000000000     0     


