data_zeolite

_audit_creation_method RASPA-1.0
_audit_creation_date 2021-6-6
_audit_author_name ''

_cell_length_a    14.129
_cell_length_b    5.253
_cell_length_c    8.928
_cell_angle_alpha 90
_cell_angle_beta  105.368
_cell_angle_gamma 90
_cell_volume      19168.2

_symmetry_cell_setting          monoclinic
_symmetry_space_group_name_Hall '-C 2y'
_symmetry_space_group_name_H-M  'C 1 2/m 1'
_symmetry_Int_Tables_number     12

loop_
_symmetry_equiv_pos_as_xyz
 'x,y,z'
 '-x,y,-z'
 '-x,-y,-z'
 'x,-y,z'
 'x+1/2,y+1/2,z'
 '-x+1/2,y+1/2,-z'
 '-x+1/2,-y+1/2,-z'
 'x+1/2,-y+1/2,z'

loop_
_atom_site_label
_atom_site_type_symbol
_atom_site_fract_x
_atom_site_fract_y
_atom_site_fract_z
_atom_site_charge
O        O      0.675200000000     0.000000000000     0.196100000000     0     
O        O      0.531100000000     0.250000000000     0.263600000000     0     
O        O      0.500000000000     0.000000000000     0.000000000000     0     
O        O      0.000000000000     0.000000000000     0.500000000000     0     
O        O      0.134500000000     0.000000000000     0.766800000000     0     
O        O      0.250000000000     0.250000000000     0.000000000000     0     
T        Si     0.559000000000     0.000000000000     0.180500000000     0     
T        Si     0.018400000000     0.000000000000     0.685500000000     0     
T        Si     0.239600000000     0.000000000000     0.893200000000     0     


