data_zeolite

_audit_creation_method RASPA-1.0
_audit_creation_date 2021-6-7
_audit_author_name ''

_cell_length_a    14.349
_cell_length_b    14.349
_cell_length_c    10.398
_cell_angle_alpha 90
_cell_angle_beta  90
_cell_angle_gamma 90
_cell_volume      25690.6

_symmetry_cell_setting          tetragonal
_symmetry_space_group_name_Hall '-I 4 2'
_symmetry_space_group_name_H-M  'I 4/m m m'
_symmetry_Int_Tables_number     139

loop_
_symmetry_equiv_pos_as_xyz
 'x,y,z'
 '-x,-y,z'
 '-y,x,z'
 'y,-x,z'
 '-x,y,-z'
 'x,-y,-z'
 'y,x,-z'
 '-y,-x,-z'
 '-x,-y,-z'
 'x,y,-z'
 'y,-x,-z'
 '-y,x,-z'
 'x,-y,z'
 '-x,y,z'
 '-y,-x,z'
 'y,x,z'
 'x+1/2,y+1/2,z+1/2'
 '-x+1/2,-y+1/2,z+1/2'
 '-y+1/2,x+1/2,z+1/2'
 'y+1/2,-x+1/2,z+1/2'
 '-x+1/2,y+1/2,-z+1/2'
 'x+1/2,-y+1/2,-z+1/2'
 'y+1/2,x+1/2,-z+1/2'
 '-y+1/2,-x+1/2,-z+1/2'
 '-x+1/2,-y+1/2,-z+1/2'
 'x+1/2,y+1/2,-z+1/2'
 'y+1/2,-x+1/2,-z+1/2'
 '-y+1/2,x+1/2,-z+1/2'
 'x+1/2,-y+1/2,z+1/2'
 '-x+1/2,y+1/2,z+1/2'
 '-y+1/2,-x+1/2,z+1/2'
 'y+1/2,x+1/2,z+1/2'

loop_
_atom_site_label
_atom_site_type_symbol
_atom_site_fract_x
_atom_site_fract_y
_atom_site_fract_z
_atom_site_charge
O        O      0.241800000000     0.000000000000     0.000000000000     0     
O        O      0.169000000000     0.169000000000     0.000000000000     0     
O        O      0.500000000000     0.874500000000     0.786500000000     0     
O        O      0.326100000000     0.862900000000     0.872300000000     0     
T        Si     0.266200000000     0.889300000000     0.000000000000     0     
T        Si     0.609000000000     0.891000000000     0.750000000000     0     


