data_zeolite

_audit_creation_method RASPA-1.0
_audit_creation_date 2021-6-7
_audit_author_name ''

_cell_length_a    17.193
_cell_length_b    17.193
_cell_length_c    27.333
_cell_angle_alpha 90
_cell_angle_beta  90
_cell_angle_gamma 120
_cell_volume      27988.6

_symmetry_cell_setting          hexagonal
_symmetry_space_group_name_Hall '-P 6c 2c'
_symmetry_space_group_name_H-M  'P 63/m m c'
_symmetry_Int_Tables_number     194

loop_
_symmetry_equiv_pos_as_xyz
 'x,y,z'
 '-y,x-y,z'
 '-x+y,-x,z'
 '-x,-y,z+1/2'
 'y,-x+y,z+1/2'
 'x-y,x,z+1/2'
 'y,x,-z'
 'x-y,-y,-z'
 '-x,-x+y,-z'
 '-y,-x,-z+1/2'
 '-x+y,y,-z+1/2'
 'x,x-y,-z+1/2'
 '-x,-y,-z'
 'y,-x+y,-z'
 'x-y,x,-z'
 'x,y,-z+1/2'
 '-y,x-y,-z+1/2'
 '-x+y,-x,-z+1/2'
 '-y,-x,z'
 '-x+y,y,z'
 'x,x-y,z'
 'y,x,z+1/2'
 'x-y,-y,z+1/2'
 '-x,-x+y,z+1/2'

loop_
_atom_site_label
_atom_site_type_symbol
_atom_site_fract_x
_atom_site_fract_y
_atom_site_fract_z
_atom_site_charge
O        O      0.002900000000     0.288000000000     0.592000000000     0     
O        O      0.000000000000     0.243000000000     0.500000000000     0     
O        O      0.140900000000     0.281900000000     0.554700000000     0     
O        O      0.107700000000     0.409500000000     0.527900000000     0     
O        O      0.693400000000     0.097000000000     0.658700000000     0     
O        O      0.668100000000     0.117000000000     0.565700000000     0     
O        O      0.830800000000     0.169200000000     0.598300000000     0     
O        O      0.431400000000     0.568600000000     0.500600000000     0     
O        O      0.262500000000     0.524900000000     0.488600000000     0     
O        O      0.861200000000     0.430600000000     0.679100000000     0     
O        O      0.875900000000     0.335400000000     0.750000000000     0     
O        O      0.740200000000     0.259800000000     0.688700000000     0     
T        Si     0.063200000000     0.305700000000     0.543600000000     0     
T        Si     0.726100000000     0.095100000000     0.603700000000     0     
T        Si     0.845100000000     0.333100000000     0.694100000000     0     
T        Si     0.332100000000     0.488000000000     0.487900000000     0     


