data_zeolite

_audit_creation_method RASPA-1.0
_audit_creation_date 2021-6-7
_audit_author_name ''

_cell_length_a    11.457
_cell_length_b    5.255
_cell_length_c    13.994
_cell_angle_alpha 90
_cell_angle_beta  100.96
_cell_angle_gamma 90
_cell_volume      24814.9

_symmetry_cell_setting          monoclinic
_symmetry_space_group_name_Hall '-P 2yb'
_symmetry_space_group_name_H-M  'P 1 21/m 1'
_symmetry_Int_Tables_number     11

loop_
_symmetry_equiv_pos_as_xyz
 'x,y,z'
 '-x,y+1/2,-z'
 '-x,-y,-z'
 'x,-y+1/2,z'

loop_
_atom_site_label
_atom_site_type_symbol
_atom_site_fract_x
_atom_site_fract_y
_atom_site_fract_z
_atom_site_charge
O        O      0.284700000000     0.250000000000     0.304000000000     0     
O        O      0.305600000000     0.500000000000     0.145500000000     0     
O        O      0.108700000000     0.250000000000     0.153600000000     0     
O        O      0.367400000000     0.250000000000     0.494000000000     0     
O        O      0.479200000000     0.000000000000     0.375700000000     0     
O        O      0.347500000000     0.250000000000     0.679400000000     0     
O        O      0.656400000000     0.250000000000     0.008100000000     0     
O        O      0.494000000000     0.250000000000     0.848500000000     0     
O        O      0.291500000000     0.500100000000     0.826500000000     0     
O        O      0.875700000000     0.250000000000     0.109000000000     0     
O        O      0.000000000000     0.000000000000     0.000000000000     0     
T        Si     0.251200000000     0.250000000000     0.186900000000     0     
T        Si     0.402400000000     0.250000000000     0.387800000000     0     
T        Si     0.438700000000     0.250000000000     0.604900000000     0     
T        Si     0.634700000000     0.250000000000     0.891000000000     0     
T        Si     0.356400000000     0.250000000000     0.795700000000     0     
T        Si     0.737000000000     0.250000000000     0.115600000000     0     
T        Si     0.995800000000     0.250000000000     0.065300000000     0     


