data_zeolite

_audit_creation_method RASPA-1.0
_audit_creation_date 2021-6-7
_audit_author_name ''

_cell_length_a    5.255
_cell_length_b    34.319
_cell_length_c    21.518
_cell_angle_alpha 90
_cell_angle_beta  90
_cell_angle_gamma 90
_cell_volume      38806.9

_symmetry_cell_setting          orthorhombic
_symmetry_space_group_name_Hall '-C 2c 2'
_symmetry_space_group_name_H-M  'C m c m'
_symmetry_Int_Tables_number     63

loop_
_symmetry_equiv_pos_as_xyz
 'x,y,z'
 '-x,-y,z+1/2'
 '-x,y,-z+1/2'
 'x,-y,-z'
 '-x,-y,-z'
 'x,y,-z+1/2'
 'x,-y,z+1/2'
 '-x,y,z'
 'x+1/2,y+1/2,z'
 '-x+1/2,-y+1/2,z+1/2'
 '-x+1/2,y+1/2,-z+1/2'
 'x+1/2,-y+1/2,-z'
 '-x+1/2,-y+1/2,-z'
 'x+1/2,y+1/2,-z+1/2'
 'x+1/2,-y+1/2,z+1/2'
 '-x+1/2,y+1/2,z'

loop_
_atom_site_label
_atom_site_type_symbol
_atom_site_fract_x
_atom_site_fract_y
_atom_site_fract_z
_atom_site_charge
O        O      0.000000000000     0.050900000000     0.946800000000     0     
O        O      0.249900000000     0.089000000000     0.033600000000     0     
O        O      0.000000000000     0.025400000000     0.062300000000     0     
O        O      0.250000000000     0.205500000000     0.965100000000     0     
O        O      0.500000000000     0.230300000000     0.063000000000     0     
O        O      0.500000000000     0.155300000000     0.033600000000     0     
O        O      0.000000000000     0.420600000000     0.177700000000     0     
O        O      0.249900000000     0.355700000000     0.158100000000     0     
O        O      0.000000000000     0.389200000000     0.066300000000     0     
O        O      0.500000000000     0.290600000000     0.139500000000     0     
O        O      0.249900000000     0.016500000000     0.644100000000     0     
O        O      0.500000000000     0.322200000000     0.250000000000     0     
O        O      0.000000000000     0.482100000000     0.250000000000     0     
T        Si     0.000000000000     0.063500000000     0.018900000000     0     
T        Si     0.500000000000     0.199100000000     0.007000000000     0     
T        Si     0.000000000000     0.380200000000     0.139700000000     0     
T        Si     0.500000000000     0.277100000000     0.067800000000     0     
T        Si     0.000000000000     0.014800000000     0.601000000000     0     
T        Si     0.000000000000     0.388900000000     0.991600000000     0     
T        Si     0.500000000000     0.331300000000     0.176700000000     0     
T        Si     0.000000000000     0.467500000000     0.178800000000     0     


