data_zeolite

_audit_creation_method RASPA-1.0
_audit_creation_date 2021-6-7
_audit_author_name ''

_cell_length_a    22.305
_cell_length_b    13.567
_cell_length_c    6.972
_cell_angle_alpha 90
_cell_angle_beta  90
_cell_angle_gamma 90
_cell_volume      33757

_symmetry_cell_setting          orthorhombic
_symmetry_space_group_name_Hall '-P 2ab 2a'
_symmetry_space_group_name_H-M  'P m m n'
_symmetry_Int_Tables_number     59

loop_
_symmetry_equiv_pos_as_xyz
 'x,y,z'
 '-x+1/2,-y+1/2,z'
 '-x,y+1/2,-z'
 'x+1/2,-y,-z'
 '-x,-y,-z'
 'x+1/2,y+1/2,-z'
 'x,-y+1/2,z'
 '-x+1/2,y,z'

loop_
_atom_site_label
_atom_site_type_symbol
_atom_site_fract_x
_atom_site_fract_y
_atom_site_fract_z
_atom_site_charge
O        O      0.148500000000     0.123700000000     0.314600000000     0     
O        O      0.030800000000     0.112300000000     0.311800000000     0     
O        O      0.090900000000     0.064600000000     0.622700000000     0     
O        O      0.084500000000     0.250000000000     0.513900000000     0     
O        O      0.147600000000     0.068400000000     0.953300000000     0     
O        O      0.177500000000     0.250000000000     0.043900000000     0     
O        O      0.250000000000     0.103300000000     0.127100000000     0     
O        O      0.970800000000     0.250000000000     0.128700000000     0     
O        O      0.034200000000     0.120400000000     0.935300000000     0     
O        O      0.935400000000     0.065300000000     0.110600000000     0     
T        Si     0.088700000000     0.137600000000     0.440800000000     0     
T        Si     0.180900000000     0.136400000000     0.109800000000     0     
T        Si     0.992800000000     0.137100000000     0.121600000000     0     
T        Si     0.084400000000     0.047100000000     0.850100000000     0     


