data_zeolite

_audit_creation_method RASPA-1.0
_audit_creation_date 2021-6-6
_audit_author_name ''

_cell_length_a    14.39
_cell_length_b    14.39
_cell_length_c    25.198
_cell_angle_alpha 90
_cell_angle_beta  90
_cell_angle_gamma 120
_cell_volume      81337.5

_symmetry_cell_setting          hexagonal
_symmetry_space_group_name_Hall '-P 6 2'
_symmetry_space_group_name_H-M  'P 6/m m m'
_symmetry_Int_Tables_number     191

loop_
_symmetry_equiv_pos_as_xyz
 'x,y,z'
 '-y,x-y,z'
 '-x+y,-x,z'
 '-x,-y,z'
 'y,-x+y,z'
 'x-y,x,z'
 'y,x,-z'
 'x-y,-y,-z'
 '-x,-x+y,-z'
 '-y,-x,-z'
 '-x+y,y,-z'
 'x,x-y,-z'
 '-x,-y,-z'
 'y,-x+y,-z'
 'x-y,x,-z'
 'x,y,-z'
 '-y,x-y,-z'
 '-x+y,-x,-z'
 '-y,-x,z'
 '-x+y,y,z'
 'x,x-y,z'
 'y,x,z'
 'x-y,-y,z'
 '-x,-x+y,z'

loop_
_atom_site_label
_atom_site_type_symbol
_atom_site_fract_x
_atom_site_fract_y
_atom_site_fract_z
_atom_site_charge
O        O      0.666700000000     0.333300000000     0.000000000000     0     
O        O      0.544800000000     0.272400000000     0.085000000000     0     
O        O      0.395300000000     0.106000000000     0.137400000000     0     
O        O      0.544700000000     0.272400000000     0.189000000000     0     
O        O      0.666700000000     0.333300000000     0.273900000000     0     
O        O      0.386900000000     0.000000000000     0.223800000000     0     
O        O      0.500000000000     0.000000000000     0.141900000000     0     
O        O      0.500000000000     0.000000000000     0.305800000000     0     
O        O      0.393500000000     0.105200000000     0.310100000000     0     
O        O      0.545300000000     0.272600000000     0.359300000000     0     
O        O      0.352000000000     0.176000000000     0.398600000000     0     
O        O      0.182100000000     0.000000000000     0.430200000000     0     
O        O      0.298900000000     0.149500000000     0.500000000000     0     
T        Si     0.469600000000     0.234800000000     0.137000000000     0     
T        Si     0.419800000000     0.209900000000     0.344300000000     0     
T        Si     0.254000000000     0.127000000000     0.440100000000     0     
T        Si     0.392700000000     0.000000000000     0.160100000000     0     
T        Si     0.392700000000     0.000000000000     0.287600000000     0     
T        Si     0.666700000000     0.333300000000     0.063700000000     0     
T        Si     0.666700000000     0.333300000000     0.210100000000     0     
T        Si     0.666700000000     0.333300000000     0.337700000000     0     


