data_zeolite

_audit_creation_method RASPA-1.0
_audit_creation_date 2021-6-7
_audit_author_name ''

_cell_length_a    26.0358
_cell_length_b    25.5895
_cell_length_c    15.8248
_cell_angle_alpha 90
_cell_angle_beta  90
_cell_angle_gamma 90
_cell_volume      42172.7

_symmetry_cell_setting          orthorhombic
_symmetry_space_group_name_Hall '-I 2 2'
_symmetry_space_group_name_H-M  'I m m m'
_symmetry_Int_Tables_number     71

loop_
_symmetry_equiv_pos_as_xyz
 'x,y,z'
 '-x,-y,z'
 '-x,y,-z'
 'x,-y,-z'
 '-x,-y,-z'
 'x,y,-z'
 'x,-y,z'
 '-x,y,z'
 'x+1/2,y+1/2,z+1/2'
 '-x+1/2,-y+1/2,z+1/2'
 '-x+1/2,y+1/2,-z+1/2'
 'x+1/2,-y+1/2,-z+1/2'
 '-x+1/2,-y+1/2,-z+1/2'
 'x+1/2,y+1/2,-z+1/2'
 'x+1/2,-y+1/2,z+1/2'
 '-x+1/2,y+1/2,z+1/2'

loop_
_atom_site_label
_atom_site_type_symbol
_atom_site_fract_x
_atom_site_fract_y
_atom_site_fract_z
_atom_site_charge
T        Si     0.441310000000     0.273400000000     0.096800000000     0     
T        Si     0.207740000000     0.155020000000     0.253700000000     0     
T        Si     0.248580000000     0.208400000000     0.095780000000     0     
T        Si     0.058880000000     0.104660000000     0.403330000000     0     
T        Si     0.195010000000     0.311890000000     0.149280000000     0     
T        Si     0.156360000000     0.059660000000     0.329000000000     0     
T        Si     0.345820000000     0.241520000000     0.192790000000     0     
T        Si     0.220120000000     0.059330000000     0.500000000000     0     
T        Si     0.173230000000     0.381980000000     0.000000000000     0     
O        O      0.403560000000     0.239800000000     0.156370000000     0     
O        O      0.247000000000     0.187130000000     0.000000000000     0     
O        O      0.240730000000     0.000000000000     0.500000000000     0     
O        O      0.434330000000     0.255360000000     0.000000000000     0     
O        O      0.000000000000     0.095560000000     0.375940000000     0     
O        O      0.163230000000     0.347260000000     0.083270000000     0     
O        O      0.185750000000     0.069280000000     0.417080000000     0     
O        O      0.096120000000     0.071270000000     0.342600000000     0     
O        O      0.179600000000     0.099070000000     0.259480000000     0     
O        O      0.230270000000     0.163230000000     0.159860000000     0     
O        O      0.306270000000     0.226050000000     0.118700000000     0     
O        O      0.210740000000     0.257880000000     0.104020000000     0     
O        O      0.066640000000     0.086650000000     0.500000000000     0     
O        O      0.500000000000     0.264390000000     0.125370000000     0     
O        O      0.267770000000     0.099340000000     0.500000000000     0     
O        O      0.426970000000     0.334350000000     0.105430000000     0     
O        O      0.254010000000     0.157580000000     0.321080000000     0     
O        O      0.164180000000     0.000000000000     0.299370000000     0     
O        O      0.159750000000     0.299360000000     0.230390000000     0     
O        O      0.135930000000     0.432140000000     0.000000000000     0     
O        O      0.333250000000     0.299570000000     0.226020000000     0     


