data_zeolite

_audit_creation_method RASPA-1.0
_audit_creation_date 2021-6-7
_audit_author_name ''

_cell_length_a    6.926
_cell_length_b    6.926
_cell_length_c    6.41
_cell_angle_alpha 90
_cell_angle_beta  90
_cell_angle_gamma 90
_cell_volume      19679

_symmetry_cell_setting          tetragonal
_symmetry_space_group_name_Hall 'P -4 -2'
_symmetry_space_group_name_H-M  'P -4 m 2'
_symmetry_Int_Tables_number     115

loop_
_symmetry_equiv_pos_as_xyz
 'x,y,z'
 '-x,-y,z'
 'y,-x,-z'
 '-y,x,-z'
 'x,-y,z'
 '-x,y,z'
 'y,x,-z'
 '-y,-x,-z'

loop_
_atom_site_label
_atom_site_type_symbol
_atom_site_fract_x
_atom_site_fract_y
_atom_site_fract_z
_atom_site_charge
O        O      0.189800000000     0.000000000000     0.355000000000     0     
O        O      0.189700000000     0.189700000000     0.000000000000     0     
O        O      0.500000000000     0.000000000000     0.118300000000     0     
T        Si     0.267900000000     0.000000000000     0.118400000000     0     
T        Si     0.000000000000     0.000000000000     0.500000000000     0     


