data_zeolite

_audit_creation_method RASPA-1.0
_audit_creation_date 2021-6-6
_audit_author_name ''

_cell_length_a    25.552
_cell_length_b    5.256
_cell_length_c    12.117
_cell_angle_alpha 90
_cell_angle_beta  109.312
_cell_angle_gamma 90
_cell_volume      46072.9

_symmetry_cell_setting          monoclinic
_symmetry_space_group_name_Hall '-C 2y'
_symmetry_space_group_name_H-M  'C 1 2/m 1'
_symmetry_Int_Tables_number     12

loop_
_symmetry_equiv_pos_as_xyz
 'x,y,z'
 '-x,y,-z'
 '-x,-y,-z'
 'x,-y,z'
 'x+1/2,y+1/2,z'
 '-x+1/2,y+1/2,-z'
 '-x+1/2,-y+1/2,-z'
 'x+1/2,-y+1/2,z'

loop_
_atom_site_label
_atom_site_type_symbol
_atom_site_fract_x
_atom_site_fract_y
_atom_site_fract_z
_atom_site_charge
O        O      0.004500000000     0.000000000000     0.131300000000     0     
O        O      0.095800000000     0.750100000000     0.242100000000     0     
O        O      0.087600000000     0.000000000000     0.049000000000     0     
O        O      0.082600000000     0.250000000000     0.857600000000     0     
O        O      0.344000000000     0.000000000000     0.571000000000     0     
O        O      0.315300000000     0.000000000000     0.759500000000     0     
O        O      0.343400000000     0.000000000000     0.207900000000     0     
O        O      0.337400000000     0.000000000000     0.987000000000     0     
O        O      0.250800000000     0.749900000000     0.851500000000     0     
O        O      0.283800000000     0.000000000000     0.347800000000     0     
O        O      0.250000000000     0.750000000000     0.500000000000     0     
T        Si     0.071000000000     0.000000000000     0.166000000000     0     
T        Si     0.062100000000     0.000000000000     0.908300000000     0     
T        Si     0.367100000000     0.000000000000     0.711900000000     0     
T        Si     0.378900000000     0.000000000000     0.119900000000     0     
T        Si     0.288500000000     0.000000000000     0.862500000000     0     
T        Si     0.281300000000     0.000000000000     0.213400000000     0     
T        Si     0.281800000000     0.000000000000     0.479100000000     0     


