data_zeolite

_audit_creation_method RASPA-1.0
_audit_creation_date 2021-6-7
_audit_author_name ''

_cell_length_a    13.439
_cell_length_b    13.439
_cell_length_c    21.86
_cell_angle_alpha 90
_cell_angle_beta  90
_cell_angle_gamma 90
_cell_volume      31584.5

_symmetry_cell_setting          tetragonal
_symmetry_space_group_name_Hall 'I -4 -2'
_symmetry_space_group_name_H-M  'I -4 m 2'
_symmetry_Int_Tables_number     119

loop_
_symmetry_equiv_pos_as_xyz
 'x,y,z'
 '-x,-y,z'
 'y,-x,-z'
 '-y,x,-z'
 'x,-y,z'
 '-x,y,z'
 'y,x,-z'
 '-y,-x,-z'
 'x+1/2,y+1/2,z+1/2'
 '-x+1/2,-y+1/2,z+1/2'
 'y+1/2,-x+1/2,-z+1/2'
 '-y+1/2,x+1/2,-z+1/2'
 'x+1/2,-y+1/2,z+1/2'
 '-x+1/2,y+1/2,z+1/2'
 'y+1/2,x+1/2,-z+1/2'
 '-y+1/2,-x+1/2,-z+1/2'

loop_
_atom_site_label
_atom_site_type_symbol
_atom_site_fract_x
_atom_site_fract_y
_atom_site_fract_z
_atom_site_charge
O        O      0.313900000000     0.649900000000     0.334300000000     0     
O        O      0.376600000000     0.684300000000     0.446100000000     0     
O        O      0.641200000000     0.500000000000     0.406700000000     0     
O        O      0.500000000000     0.615100000000     0.363000000000     0     
O        O      0.792400000000     0.500000000000     0.293400000000     0     
O        O      0.125300000000     0.635700000000     0.363900000000     0     
O        O      0.821000000000     0.679000000000     0.250000000000     0     
O        O      0.186200000000     0.688300000000     0.473500000000     0     
O        O      0.857200000000     0.500000000000     0.449800000000     0     
O        O      0.000000000000     0.633300000000     0.455900000000     0     
T        Si     0.387300000000     0.612200000000     0.387700000000     0     
T        Si     0.114000000000     0.614300000000     0.436100000000     0     
T        Si     0.205500000000     0.383700000000     0.310500000000     0     
T        Si     0.703000000000     0.297000000000     0.500000000000     0     


