data_zeolite

_audit_creation_method RASPA-1.0
_audit_creation_date 2021-6-7
_audit_author_name ''

_cell_length_a    12.77
_cell_length_b    12.77
_cell_length_c    12.977
_cell_angle_alpha 90
_cell_angle_beta  90
_cell_angle_gamma 90
_cell_volume      38091.5

_symmetry_cell_setting          tetragonal
_symmetry_space_group_name_Hall '-P 4c 2'
_symmetry_space_group_name_H-M  'P 42/m m c'
_symmetry_Int_Tables_number     131

loop_
_symmetry_equiv_pos_as_xyz
 'x,y,z'
 '-x,-y,z'
 '-y,x,z+1/2'
 'y,-x,z+1/2'
 '-x,y,-z'
 'x,-y,-z'
 'y,x,-z+1/2'
 '-y,-x,-z+1/2'
 '-x,-y,-z'
 'x,y,-z'
 'y,-x,-z+1/2'
 '-y,x,-z+1/2'
 'x,-y,z'
 '-x,y,z'
 '-y,-x,z+1/2'
 'y,x,z+1/2'

loop_
_atom_site_label
_atom_site_type_symbol
_atom_site_fract_x
_atom_site_fract_y
_atom_site_fract_z
_atom_site_charge
O        O      0.000000000000     0.619900000000     0.356400000000     0     
O        O      0.859300000000     0.656700000000     0.500000000000     0     
O        O      0.833900000000     0.500000000000     0.371000000000     0     
O        O      0.816300000000     0.694200000000     0.695400000000     0     
O        O      0.000000000000     0.880400000000     0.000000000000     0     
O        O      0.000000000000     0.000000000000     0.164500000000     0     
O        O      0.897300000000     0.179700000000     0.164400000000     0     
T        Si     0.877000000000     0.618000000000     0.616800000000     0     
T        Si     0.807000000000     0.807000000000     0.250000000000     0     
T        Si     0.000000000000     0.119200000000     0.123800000000     0     


