data_zeolite

_audit_creation_method RASPA-1.0
_audit_creation_date 2022-1-6
_audit_author_name ''

_cell_length_a    13.7021
_cell_length_b    14.3565
_cell_length_c    17.1308
_cell_angle_alpha 90
_cell_angle_beta  128.416
_cell_angle_gamma 90
_cell_volume      31684.3

_symmetry_cell_setting          monoclinic
_symmetry_space_group_name_Hall '-P 2ybc'
_symmetry_space_group_name_H-M  'P 1 21/c 1'
_symmetry_Int_Tables_number     14

loop_
_symmetry_equiv_pos_as_xyz
 'x,y,z'
 '-x,y+1/2,-z+1/2'
 '-x,-y,-z'
 'x,-y+1/2,z+1/2'

loop_
_atom_site_label
_atom_site_type_symbol
_atom_site_fract_x
_atom_site_fract_y
_atom_site_fract_z
_atom_site_charge
T        Si     0.333410000000     0.437360000000     0.049320000000     0     
T        Si     0.592790000000     0.109090000000     0.322650000000     0     
T        Si     0.444340000000     0.105400000000     0.097080000000     0     
T        Si     0.292790000000     0.577080000000     0.509900000000     0     
T        Si     0.280360000000     0.797770000000     0.148500000000     0     
T        Si     0.609650000000     0.379100000000     0.143650000000     0     
T        Si     0.226150000000     0.047890000000     0.328140000000     0     
T        Si     0.376040000000     0.191690000000     0.305520000000     0     
T        Si     0.255140000000     0.242530000000     0.088040000000     0     
T        Si     0.994540000000     0.346870000000     0.470500000000     0     
T        Si     0.011410000000     0.531110000000     0.381360000000     0     
T        Si     0.558920000000     0.217200000000     0.008410000000     0     
O        O      0.324390000000     0.523200000000     0.105160000000     0     
O        O      0.476080000000     0.426300000000     0.093000000000     0     
O        O      0.247970000000     0.041090000000     0.431760000000     0     
O        O      0.286520000000     0.343510000000     0.068020000000     0     
O        O      0.556100000000     0.092470000000     0.214360000000     0     
O        O      0.329530000000     0.704520000000     0.130800000000     0     
O        O      0.467140000000     0.116110000000     0.311250000000     0     
O        O      0.392970000000     0.004660000000     0.045700000000     0     
O        O      0.332840000000     0.163900000000     0.080770000000     0     
O        O      0.495290000000     0.159540000000     0.046680000000     0     
O        O      0.696490000000     0.385860000000     0.396330000000     0     
O        O      0.154490000000     0.538320000000     0.425120000000     0     
O        O      0.678060000000     0.161260000000     0.035030000000     0     
O        O      0.646080000000     0.312860000000     0.234050000000     0     
O        O      0.133390000000     0.788290000000     0.092480000000     0     
O        O      0.713420000000     0.459030000000     0.184800000000     0     
O        O      0.602450000000     0.317730000000     0.061520000000     0     
O        O      0.288730000000     0.141740000000     0.326000000000     0     
O        O      0.078870000000     0.050020000000     0.236950000000     0     
O        O      0.291470000000     0.239940000000     0.197260000000     0     
O        O      0.459400000000     0.269940000000     0.389460000000     0     
O        O      0.108520000000     0.221510000000     0.006010000000     0     
O        O      0.984820000000     0.428090000000     0.401210000000     0     
O        O      0.016850000000     0.107450000000     0.066220000000     0     


