data_zeolite

_audit_creation_method RASPA-1.0
_audit_creation_date 2021-6-7
_audit_author_name ''

_cell_length_a    18.246
_cell_length_b    18.246
_cell_length_c    20.557
_cell_angle_alpha 90
_cell_angle_beta  90
_cell_angle_gamma 90
_cell_volume      54750.1

_symmetry_cell_setting          tetragonal
_symmetry_space_group_name_Hall '-P 4n 2n'
_symmetry_space_group_name_H-M  'P 42/m n m'
_symmetry_Int_Tables_number     136

loop_
_symmetry_equiv_pos_as_xyz
 'x,y,z'
 '-x,-y,z'
 '-y+1/2,x+1/2,z+1/2'
 'y+1/2,-x+1/2,z+1/2'
 '-x+1/2,y+1/2,-z+1/2'
 'x+1/2,-y+1/2,-z+1/2'
 'y,x,-z'
 '-y,-x,-z'
 '-x,-y,-z'
 'x,y,-z'
 'y+1/2,-x+1/2,-z+1/2'
 '-y+1/2,x+1/2,-z+1/2'
 'x+1/2,-y+1/2,z+1/2'
 '-x+1/2,y+1/2,z+1/2'
 '-y,-x,z'
 'y,x,z'

loop_
_atom_site_label
_atom_site_type_symbol
_atom_site_fract_x
_atom_site_fract_y
_atom_site_fract_z
_atom_site_charge
O        O      0.128700000000     0.722900000000     0.194100000000     0     
O        O      0.055300000000     0.751500000000     0.087300000000     0     
O        O      0.180000000000     0.680500000000     0.081100000000     0     
O        O      0.179200000000     0.820800000000     0.111300000000     0     
O        O      0.053800000000     0.750700000000     0.300500000000     0     
O        O      0.184400000000     0.691300000000     0.308800000000     0     
O        O      0.171600000000     0.828400000000     0.272300000000     0     
O        O      0.083100000000     0.261200000000     0.123000000000     0     
O        O      0.049300000000     0.238400000000     0.000000000000     0     
O        O      0.031800000000     0.133700000000     0.086200000000     0     
O        O      0.172800000000     0.172800000000     0.185900000000     0     
O        O      0.078900000000     0.255300000000     0.250400000000     0     
O        O      0.033300000000     0.135000000000     0.308500000000     0     
O        O      0.060900000000     0.253900000000     0.377100000000     0     
O        O      0.000000000000     0.000000000000     0.121000000000     0     
O        O      0.081300000000     0.081300000000     0.197800000000     0     
O        O      0.000000000000     0.000000000000     0.275400000000     0     
O        O      0.176500000000     0.176500000000     0.408700000000     0     
O        O      0.100600000000     0.242800000000     0.500000000000     0     
T        Si     0.135900000000     0.744400000000     0.118400000000     0     
T        Si     0.134400000000     0.748500000000     0.268900000000     0     
T        Si     0.027100000000     0.220800000000     0.074200000000     0     
T        Si     0.131600000000     0.250800000000     0.187700000000     0     
T        Si     0.029900000000     0.223200000000     0.309000000000     0     
T        Si     0.129500000000     0.248500000000     0.426100000000     0     
T        Si     0.062200000000     0.062200000000     0.123200000000     0     
T        Si     0.062200000000     0.062200000000     0.272400000000     0     


