data_zeolite

_audit_creation_method RASPA-1.0
_audit_creation_date 2021-6-6
_audit_author_name ''

_cell_length_a    19.641
_cell_length_b    18.4574
_cell_length_c    16.5655
_cell_angle_alpha 90
_cell_angle_beta  90
_cell_angle_gamma 90
_cell_volume      48043

_symmetry_cell_setting          orthorhombic
_symmetry_space_group_name_Hall '-I 2 2'
_symmetry_space_group_name_H-M  'I m m m'
_symmetry_Int_Tables_number     71

loop_
_symmetry_equiv_pos_as_xyz
 'x,y,z'
 '-x,-y,z'
 '-x,y,-z'
 'x,-y,-z'
 '-x,-y,-z'
 'x,y,-z'
 'x,-y,z'
 '-x,y,z'
 'x+1/2,y+1/2,z+1/2'
 '-x+1/2,-y+1/2,z+1/2'
 '-x+1/2,y+1/2,-z+1/2'
 'x+1/2,-y+1/2,-z+1/2'
 '-x+1/2,-y+1/2,-z+1/2'
 'x+1/2,y+1/2,-z+1/2'
 'x+1/2,-y+1/2,z+1/2'
 '-x+1/2,y+1/2,z+1/2'

loop_
_atom_site_label
_atom_site_type_symbol
_atom_site_fract_x
_atom_site_fract_y
_atom_site_fract_z
_atom_site_charge
T        Si     0.234170000000     0.119520000000     0.177850000000     0     
T        Si     0.165720000000     0.380940000000     0.178810000000     0     
T        Si     0.137230000000     0.231480000000     0.095470000000     0     
T        Si     0.247220000000     0.000000000000     0.405500000000     0     
T        Si     0.148460000000     0.000000000000     0.263210000000     0     
T        Si     0.081140000000     0.500000000000     0.262530000000     0     
T        Si     0.183030000000     0.500000000000     0.407080000000     0     
T        Si     0.000000000000     0.141580000000     0.093280000000     0     
T        Si     0.000000000000     0.000000000000     0.206620000000     0     
O        O      0.286570000000     0.144240000000     0.247300000000     0     
O        O      0.174260000000     0.071510000000     0.216950000000     0     
O        O      0.200500000000     0.189460000000     0.135760000000     0     
O        O      0.272660000000     0.071560000000     0.110740000000     0     
O        O      0.103650000000     0.428790000000     0.213310000000     0     
O        O      0.209240000000     0.428650000000     0.115930000000     0     
O        O      0.133700000000     0.311490000000     0.133950000000     0     
O        O      0.000000000000     0.117090000000     0.000000000000     0     
O        O      0.067030000000     0.189000000000     0.111750000000     0     
O        O      0.000000000000     0.071150000000     0.150520000000     0     
O        O      0.150500000000     0.238470000000     0.000000000000     0     
O        O      0.116730000000     0.500000000000     0.350030000000     0     
O        O      0.000000000000     0.500000000000     0.274910000000     0     
O        O      0.177670000000     0.000000000000     0.353990000000     0     
O        O      0.228330000000     0.000000000000     0.500000000000     0     
O        O      0.066520000000     0.000000000000     0.263510000000     0     
O        O      0.159060000000     0.500000000000     0.500000000000     0     


