data_zeolite

_audit_creation_method RASPA-1.0
_audit_creation_date 2021-6-7
_audit_author_name ''

_cell_length_a    26.06
_cell_length_b    13.884
_cell_length_c    22.86
_cell_angle_alpha 90
_cell_angle_beta  90
_cell_angle_gamma 90
_cell_volume      33084.6

_symmetry_cell_setting          orthorhombic
_symmetry_space_group_name_Hall '-F 2 2'
_symmetry_space_group_name_H-M  'F m m m'
_symmetry_Int_Tables_number     69

loop_
_symmetry_equiv_pos_as_xyz
 'x,y,z'
 '-x,-y,z'
 '-x,y,-z'
 'x,-y,-z'
 '-x,-y,-z'
 'x,y,-z'
 'x,-y,z'
 '-x,y,z'
 'x,y+1/2,z+1/2'
 '-x,-y+1/2,z+1/2'
 '-x,y+1/2,-z+1/2'
 'x,-y+1/2,-z+1/2'
 '-x,-y+1/2,-z+1/2'
 'x,y+1/2,-z+1/2'
 'x,-y+1/2,z+1/2'
 '-x,y+1/2,z+1/2'
 'x+1/2,y,z+1/2'
 '-x+1/2,-y,z+1/2'
 '-x+1/2,y,-z+1/2'
 'x+1/2,-y,-z+1/2'
 '-x+1/2,-y,-z+1/2'
 'x+1/2,y,-z+1/2'
 'x+1/2,-y,z+1/2'
 '-x+1/2,y,z+1/2'
 'x+1/2,y+1/2,z'
 '-x+1/2,-y+1/2,z'
 '-x+1/2,y+1/2,-z'
 'x+1/2,-y+1/2,-z'
 '-x+1/2,-y+1/2,-z'
 'x+1/2,y+1/2,-z'
 'x+1/2,-y+1/2,z'
 '-x+1/2,y+1/2,z'

loop_
_atom_site_label
_atom_site_type_symbol
_atom_site_fract_x
_atom_site_fract_y
_atom_site_fract_z
_atom_site_charge
O        O      0.347900000000     0.254100000000     0.862700000000     0     
O        O      0.320100000000     0.250000000000     0.750000000000     0     
O        O      0.250000000000     0.250000000000     0.832000000000     0     
O        O      0.308100000000     0.097500000000     0.821800000000     0     
O        O      0.598800000000     0.405800000000     0.842000000000     0     
O        O      0.586900000000     0.334200000000     0.943700000000     0     
O        O      0.550600000000     0.245000000000     0.851000000000     0     
O        O      0.348900000000     0.500000000000     0.763300000000     0     
O        O      0.250000000000     0.500000000000     0.750000000000     0     
O        O      0.550400000000     0.500000000000     0.759800000000     0     
O        O      0.500000000000     0.631700000000     0.000000000000     0     
O        O      0.572500000000     0.500000000000     0.000000000000     0     
O        O      0.500000000000     0.404500000000     0.680000000000     0     
O        O      0.500000000000     0.250000000000     0.750000000000     0     
T        Si     0.307000000000     0.213500000000     0.815500000000     0     
T        Si     0.598200000000     0.305300000000     0.876800000000     0     
T        Si     0.303700000000     0.500000000000     0.715600000000     0     
T        Si     0.599700000000     0.500000000000     0.801800000000     0     
T        Si     0.561200000000     0.614200000000     0.000000000000     0     
T        Si     0.500000000000     0.288700000000     0.683700000000     0     
T        Si     0.500000000000     0.500000000000     0.719600000000     0     


