data_zeolite

_audit_creation_method RASPA-1.0
_audit_creation_date 2021-6-7
_audit_author_name ''

_cell_length_a    20.408
_cell_length_b    13.304
_cell_length_c    20.166
_cell_angle_alpha 90
_cell_angle_beta  102.333
_cell_angle_gamma 90
_cell_volume      42791

_symmetry_cell_setting          monoclinic
_symmetry_space_group_name_Hall 'C -2yc'
_symmetry_space_group_name_H-M  'C 1 c 1'
_symmetry_Int_Tables_number     9

loop_
_symmetry_equiv_pos_as_xyz
 'x,y,z'
 'x,-y,z+1/2'
 'x+1/2,y+1/2,z'
 'x+1/2,-y+1/2,z+1/2'

loop_
_atom_site_label
_atom_site_type_symbol
_atom_site_fract_x
_atom_site_fract_y
_atom_site_fract_z
_atom_site_charge
O        O      0.122300000000     0.334400000000     0.073500000000     0     
O        O      0.106700000000     0.529600000000     0.082300000000     0     
O        O      0.008200000000     0.418700000000     0.014100000000     0     
O        O      0.116900000000     0.450100000000     0.966500000000     0     
O        O      0.254500000000     0.331600000000     0.100600000000     0     
O        O      0.186300000000     0.163000000000     0.094400000000     0     
O        O      0.189900000000     0.289200000000     0.196000000000     0     
O        O      0.381200000000     0.365200000000     0.101700000000     0     
O        O      0.286900000000     0.457700000000     0.013400000000     0     
O        O      0.309300000000     0.506300000000     0.143100000000     0     
O        O      0.429700000000     0.180700000000     0.116100000000     0     
O        O      0.506500000000     0.333300000000     0.165200000000     0     
O        O      0.407400000000     0.278700000000     0.221800000000     0     
O        O      0.307500000000     0.109100000000     0.085000000000     0     
O        O      0.398800000000     0.014800000000     0.174300000000     0     
O        O      0.405400000000     0.013500000000     0.045400000000     0     
O        O      0.204600000000     0.045700000000     0.994100000000     0     
O        O      0.224900000000     0.976100000000     0.119100000000     0     
O        O      0.631300000000     0.363700000000     0.154000000000     0     
O        O      0.606700000000     0.291000000000     0.267400000000     0     
O        O      0.585300000000     0.179100000000     0.158500000000     0     
O        O      0.758100000000     0.325300000000     0.203100000000     0     
O        O      0.702100000000     0.485800000000     0.243400000000     0     
O        O      0.830800000000     0.162300000000     0.226200000000     0     
O        O      0.889500000000     0.339700000000     0.232300000000     0     
O        O      0.825000000000     0.286900000000     0.326700000000     0     
O        O      0.707800000000     0.108700000000     0.169500000000     0     
O        O      0.780200000000     0.996200000000     0.264200000000     0     
O        O      0.617600000000     0.000900000000     0.213300000000     0     
O        O      0.922600000000     0.501600000000     0.307000000000     0     
O        O      0.007400000000     0.422700000000     0.239400000000     0     
O        O      0.886800000000     0.552400000000     0.419900000000     0     
O        O      0.881600000000     0.349500000000     0.449300000000     0     
O        O      0.750800000000     0.325500000000     0.415900000000     0     
O        O      0.829900000000     0.167900000000     0.431500000000     0     
O        O      0.626800000000     0.392100000000     0.381300000000     0     
O        O      0.727900000000     0.512300000000     0.376100000000     0     
O        O      0.595200000000     0.200500000000     0.380500000000     0     
O        O      0.504900000000     0.332800000000     0.323300000000     0     
O        O      0.707600000000     0.096900000000     0.397400000000     0     
O        O      0.593200000000     0.014600000000     0.335700000000     0     
O        O      0.809900000000     0.977800000000     0.397400000000     0     
O        O      0.380700000000     0.381000000000     0.323900000000     0     
O        O      0.419600000000     0.192200000000     0.341100000000     0     
O        O      0.256100000000     0.326700000000     0.320500000000     0     
O        O      0.184500000000     0.162600000000     0.294500000000     0     
O        O      0.124500000000     0.339900000000     0.289700000000     0     
O        O      0.306700000000     0.092100000000     0.302700000000     0     
T        Si     0.088300000000     0.432800000000     0.034100000000     0     
T        Si     0.188300000000     0.279600000000     0.116200000000     0     
T        Si     0.307900000000     0.415800000000     0.090000000000     0     
T        Si     0.431100000000     0.289800000000     0.150900000000     0     
T        Si     0.385700000000     0.079200000000     0.105300000000     0     
T        Si     0.230600000000     0.073200000000     0.073100000000     0     
T        Si     0.582300000000     0.292200000000     0.186000000000     0     
T        Si     0.704200000000     0.413700000000     0.179800000000     0     
T        Si     0.826200000000     0.278400000000     0.247400000000     0     
T        Si     0.782400000000     0.068200000000     0.200500000000     0     
T        Si     0.629500000000     0.079500000000     0.156400000000     0     
T        Si     0.929600000000     0.444600000000     0.238400000000     0     
T        Si     0.821800000000     0.282700000000     0.405600000000     0     
T        Si     0.702800000000     0.421200000000     0.417000000000     0     
T        Si     0.583300000000     0.303800000000     0.338200000000     0     
T        Si     0.628300000000     0.090700000000     0.394700000000     0     
T        Si     0.783500000000     0.071100000000     0.435200000000     0     
T        Si     0.428200000000     0.295700000000     0.302600000000     0     
T        Si     0.306700000000     0.420600000000     0.326400000000     0     
T        Si     0.188500000000     0.279600000000     0.275200000000     0     
T        Si     0.230400000000     0.063000000000     0.304200000000     0     
T        Si     0.383900000000     0.084500000000     0.342400000000     0     
T        Si     0.085700000000     0.444500000000     0.269500000000     0     


