data_zeolite

_audit_creation_method RASPA-1.0
_audit_creation_date 2022-1-5
_audit_author_name ''

_cell_length_a    9.08694
_cell_length_b    7.55481
_cell_length_c    10.4761
_cell_angle_alpha 90
_cell_angle_beta  108.333
_cell_angle_gamma 90
_cell_volume      24576.7

_symmetry_cell_setting          monoclinic
_symmetry_space_group_name_Hall '-P 2y'
_symmetry_space_group_name_H-M  'P 1 2/m 1'
_symmetry_Int_Tables_number     10

loop_
_symmetry_equiv_pos_as_xyz
 'x,y,z'
 '-x,y,-z'
 '-x,-y,-z'
 'x,-y,z'

loop_
_atom_site_label
_atom_site_type_symbol
_atom_site_fract_x
_atom_site_fract_y
_atom_site_fract_z
_atom_site_charge
Si       Si     0.313820000000     0.296860000000     0.309830000000     0     
Si       Si     0.331050000000     0.296920000000     0.607380000000     0     
Si       Si     0.879680000000     0.000000000000     0.350160000000     0     
Si       Si     0.093070000000     0.000000000000     0.158230000000     0     
O        O      0.268740000000     0.279030000000     0.446100000000     0     
O        O      0.295480000000     0.500000000000     0.260860000000     0     
O        O      0.490600000000     0.234690000000     0.337530000000     0     
O        O      0.200440000000     0.174000000000     0.194980000000     0     
O        O      0.317860000000     0.500000000000     0.649090000000     0     
O        O      0.227920000000     0.173870000000     0.671620000000     0     
O        O      0.000000000000     0.000000000000     0.500000000000     0     
O        O      0.971960000000     0.000000000000     0.241930000000     0     
O        O      0.000000000000     0.000000000000     0.000000000000     0     


