data_zeolite

_audit_creation_method RASPA-1.0
_audit_creation_date 2021-6-7
_audit_author_name ''

_cell_length_a    35.622
_cell_length_b    35.622
_cell_length_c    35.622
_cell_angle_alpha 90
_cell_angle_beta  90
_cell_angle_gamma 90
_cell_volume      45201.7

_symmetry_cell_setting          cubic
_symmetry_space_group_name_Hall '-F 4vw 2vw 3'
_symmetry_space_group_name_H-M  'F d -3 m'
_symmetry_Int_Tables_number     227

loop_
_symmetry_equiv_pos_as_xyz
 'x,y,z'
 '-x+3/4,-y+1/4,z+1/2'
 '-x+1/4,y+1/2,-z+3/4'
 'x+1/2,-y+3/4,-z+1/4'
 'z,x,y'
 'z+1/2,-x+3/4,-y+1/4'
 '-z+3/4,-x+1/4,y+1/2'
 '-z+1/4,x+1/2,-y+3/4'
 'y,z,x'
 '-y+1/4,z+1/2,-x+3/4'
 'y+1/2,-z+3/4,-x+1/4'
 '-y+3/4,-z+1/4,x+1/2'
 'y+3/4,x+1/4,-z+1/2'
 '-y,-x,-z'
 'y+1/4,-x+1/2,z+3/4'
 '-y+1/2,x+3/4,z+1/4'
 'x+3/4,z+1/4,-y+1/2'
 '-x+1/2,z+3/4,y+1/4'
 '-x,-z,-y'
 'x+1/4,-z+1/2,y+3/4'
 'z+3/4,y+1/4,-x+1/2'
 'z+1/4,-y+1/2,x+3/4'
 '-z+1/2,y+3/4,x+1/4'
 '-z,-y,-x'
 '-x,-y,-z'
 'x+1/4,y+3/4,-z+1/2'
 'x+3/4,-y+1/2,z+1/4'
 '-x+1/2,y+1/4,z+3/4'
 '-z,-x,-y'
 '-z+1/2,x+1/4,y+3/4'
 'z+1/4,x+3/4,-y+1/2'
 'z+3/4,-x+1/2,y+1/4'
 '-y,-z,-x'
 'y+3/4,-z+1/2,x+1/4'
 '-y+1/2,z+1/4,x+3/4'
 'y+1/4,z+3/4,-x+1/2'
 '-y+1/4,-x+3/4,z+1/2'
 'y,x,z'
 '-y+3/4,x+1/2,-z+1/4'
 'y+1/2,-x+1/4,-z+3/4'
 '-x+1/4,-z+3/4,y+1/2'
 'x+1/2,-z+1/4,-y+3/4'
 'x,z,y'
 '-x+3/4,z+1/2,-y+1/4'
 '-z+1/4,-y+3/4,x+1/2'
 '-z+3/4,y+1/2,-x+1/4'
 'z+1/2,-y+1/4,-x+3/4'
 'z,y,x'
 'x,y+1/2,z+1/2'
 '-x+3/4,-y+3/4,z'
 '-x+1/4,y,-z+1/4'
 'x+1/2,-y+1/4,-z+3/4'
 'z,x+1/2,y+1/2'
 'z+1/2,-x+1/4,-y+3/4'
 '-z+3/4,-x+3/4,y'
 '-z+1/4,x,-y+1/4'
 'y,z+1/2,x+1/2'
 '-y+1/4,z,-x+1/4'
 'y+1/2,-z+1/4,-x+3/4'
 '-y+3/4,-z+3/4,x'
 'y+3/4,x+3/4,-z'
 '-y,-x+1/2,-z+1/2'
 'y+1/4,-x,z+1/4'
 '-y+1/2,x+1/4,z+3/4'
 'x+3/4,z+3/4,-y'
 '-x+1/2,z+1/4,y+3/4'
 '-x,-z+1/2,-y+1/2'
 'x+1/4,-z,y+1/4'
 'z+3/4,y+3/4,-x'
 'z+1/4,-y,x+1/4'
 '-z+1/2,y+1/4,x+3/4'
 '-z,-y+1/2,-x+1/2'
 '-x,-y+1/2,-z+1/2'
 'x+1/4,y+1/4,-z'
 'x+3/4,-y,z+3/4'
 '-x+1/2,y+3/4,z+1/4'
 '-z,-x+1/2,-y+1/2'
 '-z+1/2,x+3/4,y+1/4'
 'z+1/4,x+1/4,-y'
 'z+3/4,-x,y+3/4'
 '-y,-z+1/2,-x+1/2'
 'y+3/4,-z,x+3/4'
 '-y+1/2,z+3/4,x+1/4'
 'y+1/4,z+1/4,-x'
 '-y+1/4,-x+1/4,z'
 'y,x+1/2,z+1/2'
 '-y+3/4,x,-z+3/4'
 'y+1/2,-x+3/4,-z+1/4'
 '-x+1/4,-z+1/4,y'
 'x+1/2,-z+3/4,-y+1/4'
 'x,z+1/2,y+1/2'
 '-x+3/4,z,-y+3/4'
 '-z+1/4,-y+1/4,x'
 '-z+3/4,y,-x+3/4'
 'z+1/2,-y+3/4,-x+1/4'
 'z,y+1/2,x+1/2'
 'x+1/2,y,z+1/2'
 '-x+1/4,-y+1/4,z'
 '-x+3/4,y+1/2,-z+1/4'
 'x,-y+3/4,-z+3/4'
 'z+1/2,x,y+1/2'
 'z,-x+3/4,-y+3/4'
 '-z+1/4,-x+1/4,y'
 '-z+3/4,x+1/2,-y+1/4'
 'y+1/2,z,x+1/2'
 '-y+3/4,z+1/2,-x+1/4'
 'y,-z+3/4,-x+3/4'
 '-y+1/4,-z+1/4,x'
 'y+1/4,x+1/4,-z'
 '-y+1/2,-x,-z+1/2'
 'y+3/4,-x+1/2,z+1/4'
 '-y,x+3/4,z+3/4'
 'x+1/4,z+1/4,-y'
 '-x,z+3/4,y+3/4'
 '-x+1/2,-z,-y+1/2'
 'x+3/4,-z+1/2,y+1/4'
 'z+1/4,y+1/4,-x'
 'z+3/4,-y+1/2,x+1/4'
 '-z,y+3/4,x+3/4'
 '-z+1/2,-y,-x+1/2'
 '-x+1/2,-y,-z+1/2'
 'x+3/4,y+3/4,-z'
 'x+1/4,-y+1/2,z+3/4'
 '-x,y+1/4,z+1/4'
 '-z+1/2,-x,-y+1/2'
 '-z,x+1/4,y+1/4'
 'z+3/4,x+3/4,-y'
 'z+1/4,-x+1/2,y+3/4'
 '-y+1/2,-z,-x+1/2'
 'y+1/4,-z+1/2,x+3/4'
 '-y,z+1/4,x+1/4'
 'y+3/4,z+3/4,-x'
 '-y+3/4,-x+3/4,z'
 'y+1/2,x,z+1/2'
 '-y+1/4,x+1/2,-z+3/4'
 'y,-x+1/4,-z+1/4'
 '-x+3/4,-z+3/4,y'
 'x,-z+1/4,-y+1/4'
 'x+1/2,z,y+1/2'
 '-x+1/4,z+1/2,-y+3/4'
 '-z+3/4,-y+3/4,x'
 '-z+1/4,y+1/2,-x+3/4'
 'z,-y+1/4,-x+1/4'
 'z+1/2,y,x+1/2'
 'x+1/2,y+1/2,z'
 '-x+1/4,-y+3/4,z+1/2'
 '-x+3/4,y,-z+3/4'
 'x,-y+1/4,-z+1/4'
 'z+1/2,x+1/2,y'
 'z,-x+1/4,-y+1/4'
 '-z+1/4,-x+3/4,y+1/2'
 '-z+3/4,x,-y+3/4'
 'y+1/2,z+1/2,x'
 '-y+3/4,z,-x+3/4'
 'y,-z+1/4,-x+1/4'
 '-y+1/4,-z+3/4,x+1/2'
 'y+1/4,x+3/4,-z+1/2'
 '-y+1/2,-x+1/2,-z'
 'y+3/4,-x,z+3/4'
 '-y,x+1/4,z+1/4'
 'x+1/4,z+3/4,-y+1/2'
 '-x,z+1/4,y+1/4'
 '-x+1/2,-z+1/2,-y'
 'x+3/4,-z,y+3/4'
 'z+1/4,y+3/4,-x+1/2'
 'z+3/4,-y,x+3/4'
 '-z,y+1/4,x+1/4'
 '-z+1/2,-y+1/2,-x'
 '-x+1/2,-y+1/2,-z'
 'x+3/4,y+1/4,-z+1/2'
 'x+1/4,-y,z+1/4'
 '-x,y+3/4,z+3/4'
 '-z+1/2,-x+1/2,-y'
 '-z,x+3/4,y+3/4'
 'z+3/4,x+1/4,-y+1/2'
 'z+1/4,-x,y+1/4'
 '-y+1/2,-z+1/2,-x'
 'y+1/4,-z,x+1/4'
 '-y,z+3/4,x+3/4'
 'y+3/4,z+1/4,-x+1/2'
 '-y+3/4,-x+1/4,z+1/2'
 'y+1/2,x+1/2,z'
 '-y+1/4,x,-z+1/4'
 'y,-x+3/4,-z+3/4'
 '-x+3/4,-z+1/4,y+1/2'
 'x,-z+3/4,-y+3/4'
 'x+1/2,z+1/2,y'
 '-x+1/4,z,-y+1/4'
 '-z+3/4,-y+1/4,x+1/2'
 '-z+1/4,y,-x+1/4'
 'z,-y+3/4,-x+3/4'
 'z+1/2,y+1/2,x'

loop_
_atom_site_label
_atom_site_type_symbol
_atom_site_fract_x
_atom_site_fract_y
_atom_site_fract_z
_atom_site_charge
O        O      0.212900000000     0.136000000000     0.212900000000     0     
O        O      0.159800000000     0.090200000000     0.236000000000     0     
O        O      0.211800000000     0.113300000000     0.283100000000     0     
O        O      0.160400000000     0.160400000000     0.258700000000     0     
O        O      0.343000000000     0.093000000000     0.250000000000     0     
O        O      0.285100000000     0.122000000000     0.285100000000     0     
O        O      0.327000000000     0.164500000000     0.241800000000     0     
O        O      0.280400000000     0.210600000000     0.369900000000     0     
O        O      0.299500000000     0.201200000000     0.299500000000     0     
O        O      0.237400000000     0.237400000000     0.316200000000     0     
O        O      0.435100000000     0.214300000000     0.314900000000     0     
O        O      0.423700000000     0.253000000000     0.253000000000     0     
O        O      0.429500000000     0.179600000000     0.250000000000     0     
T        Si     0.186200000000     0.125000000000     0.247700000000     0     
T        Si     0.309500000000     0.123100000000     0.247100000000     0     
T        Si     0.264700000000     0.203500000000     0.328200000000     0     
T        Si     0.414600000000     0.214400000000     0.274600000000     0     


