data_zeolite

_audit_creation_method RASPA-1.0
_audit_creation_date 2021-6-10
_audit_author_name ''

_cell_length_a    12.88
_cell_length_b    12.88
_cell_length_c    60.6099
_cell_angle_alpha 90
_cell_angle_beta  90
_cell_angle_gamma 120
_cell_volume      78370.1

_symmetry_cell_setting          trigonal
_symmetry_space_group_name_Hall '-R 3 2"'
_symmetry_space_group_name_H-M  'R -3 m'
_symmetry_Int_Tables_number     166

loop_
_symmetry_equiv_pos_as_xyz
 'x,y,z'
 '-y,x-y,z'
 '-x+y,-x,z'
 'y,x,-z'
 'x-y,-y,-z'
 '-x,-x+y,-z'
 '-x,-y,-z'
 'y,-x+y,-z'
 'x-y,x,-z'
 '-y,-x,z'
 '-x+y,y,z'
 'x,x-y,z'
 'x+2/3,y+1/3,z+1/3'
 '-y+2/3,x-y+1/3,z+1/3'
 '-x+y+2/3,-x+1/3,z+1/3'
 'y+2/3,x+1/3,-z+1/3'
 'x-y+2/3,-y+1/3,-z+1/3'
 '-x+2/3,-x+y+1/3,-z+1/3'
 '-x+2/3,-y+1/3,-z+1/3'
 'y+2/3,-x+y+1/3,-z+1/3'
 'x-y+2/3,x+1/3,-z+1/3'
 '-y+2/3,-x+1/3,z+1/3'
 '-x+y+2/3,y+1/3,z+1/3'
 'x+2/3,x-y+1/3,z+1/3'
 'x+1/3,y+2/3,z+2/3'
 '-y+1/3,x-y+2/3,z+2/3'
 '-x+y+1/3,-x+2/3,z+2/3'
 'y+1/3,x+2/3,-z+2/3'
 'x-y+1/3,-y+2/3,-z+2/3'
 '-x+1/3,-x+y+2/3,-z+2/3'
 '-x+1/3,-y+2/3,-z+2/3'
 'y+1/3,-x+y+2/3,-z+2/3'
 'x-y+1/3,x+2/3,-z+2/3'
 '-y+1/3,-x+2/3,z+2/3'
 '-x+y+1/3,y+2/3,z+2/3'
 'x+1/3,x-y+2/3,z+2/3'

loop_
_atom_site_label
_atom_site_type_symbol
_atom_site_fract_x
_atom_site_fract_y
_atom_site_fract_z
_atom_site_charge
T        Si     0.237940000000     0.238380000000     0.025470000000     0     
T        Si     0.426790000000     0.334320000000     0.936910000000     0     
T        Si     0.428600000000     0.336520000000     0.103650000000     0     
T        Si     0.427820000000     0.333760000000     0.858780000000     0     
O        O      0.098700000000     0.197400000000     0.028960000000     0     
O        O      0.319270000000     0.353460000000     0.040690000000     0     
O        O      0.273540000000     0.273540000000     0.000000000000     0     
O        O      0.260320000000     0.130160000000     0.032150000000     0     
O        O      0.370340000000     0.374500000000     0.917280000000     0     
O        O      0.565300000000     0.434700000000     0.940360000000     0     
O        O      0.417340000000     0.208670000000     0.930480000000     0     
O        O      0.570510000000     0.429490000000     0.105190000000     0     
O        O      0.404220000000     0.202110000000     0.100640000000     0     
O        O      0.364410000000     0.344740000000     0.125840000000     0     
O        O      0.566440000000     0.433560000000     0.862360000000     0     
O        O      0.407680000000     0.203840000000     0.865330000000     0     
O        O      0.391850000000     0.333330000000     0.833330000000     0     


