data_zeolite

_audit_creation_method RASPA-1.0
_audit_creation_date 2021-6-6
_audit_author_name ''

_cell_length_a    20.1437
_cell_length_b    14.0723
_cell_length_c    12.5223
_cell_angle_alpha 90
_cell_angle_beta  115.651
_cell_angle_gamma 90
_cell_volume      38398.1

_symmetry_cell_setting          monoclinic
_symmetry_space_group_name_Hall '-C 2y'
_symmetry_space_group_name_H-M  'C 1 2/m 1'
_symmetry_Int_Tables_number     12

loop_
_symmetry_equiv_pos_as_xyz
 'x,y,z'
 '-x,y,-z'
 '-x,-y,-z'
 'x,-y,z'
 'x+1/2,y+1/2,z'
 '-x+1/2,y+1/2,-z'
 '-x+1/2,-y+1/2,-z'
 'x+1/2,-y+1/2,z'

loop_
_atom_site_label
_atom_site_type_symbol
_atom_site_fract_x
_atom_site_fract_y
_atom_site_fract_z
_atom_site_charge
O        O      0.827000000000     0.906200000000     0.745000000000     0     
O        O      0.868800000000     0.730900000000     0.728300000000     0     
O        O      0.843700000000     0.781000000000     0.909000000000     0     
O        O      0.733200000000     0.764400000000     0.698100000000     0     
O        O      0.393200000000     0.245600000000     0.135200000000     0     
O        O      0.397400000000     0.092800000000     0.257800000000     0     
O        O      0.406400000000     0.261600000000     0.352700000000     0     
O        O      0.516700000000     0.198200000000     0.315300000000     0     
O        O      0.173900000000     0.907300000000     0.949700000000     0     
O        O      0.250000000000     0.750000000000     0.000000000000     0     
O        O      0.173900000000     0.906600000000     0.644500000000     0     
O        O      0.137800000000     0.773500000000     0.479700000000     0     
O        O      0.134500000000     0.593700000000     0.416900000000     0     
O        O      0.705600000000     0.000000000000     0.315900000000     0     
O        O      0.756700000000     0.000000000000     0.154300000000     0     
O        O      0.793300000000     0.500000000000     0.286800000000     0     
O        O      0.745700000000     0.500000000000     0.452100000000     0     
O        O      0.796300000000     0.500000000000     0.078200000000     0     
T        Si     0.818000000000     0.795600000000     0.769200000000     0     
T        Si     0.428500000000     0.199000000000     0.265400000000     0     
T        Si     0.171900000000     0.795800000000     0.976500000000     0     
T        Si     0.160300000000     0.794700000000     0.617400000000     0     
T        Si     0.105200000000     0.699300000000     0.371300000000     0     
T        Si     0.778800000000     0.000000000000     0.294200000000     0     
T        Si     0.221300000000     0.000000000000     0.311400000000     0     
T        Si     0.345500000000     0.000000000000     0.219300000000     0     
T        Si     0.222300000000     0.000000000000     0.955900000000     0     
T        Si     0.318100000000     0.000000000000     0.576700000000     0     


