data_zeolite

_audit_creation_method RASPA-1.0
_audit_creation_date 2022-1-5
_audit_author_name ''

_cell_length_a    12.632
_cell_length_b    12.632
_cell_length_c    26.186
_cell_angle_alpha 90
_cell_angle_beta  90
_cell_angle_gamma 90
_cell_volume      37605.9

_symmetry_cell_setting          tetragonal
_symmetry_space_group_name_Hall 'P 4w 2c'
_symmetry_space_group_name_H-M  'P 41 2 2'
_symmetry_Int_Tables_number     91

loop_
_symmetry_equiv_pos_as_xyz
 'x,y,z'
 '-x,-y,z+1/2'
 '-y,x,z+1/4'
 'y,-x,z+3/4'
 '-x,y,-z'
 'x,-y,-z+1/2'
 'y,x,-z+3/4'
 '-y,-x,-z+1/4'

loop_
_atom_site_label
_atom_site_type_symbol
_atom_site_fract_x
_atom_site_fract_y
_atom_site_fract_z
_atom_site_charge
O        O      0.833100000000     0.838900000000     0.059400000000     0     
O        O      0.000000000000     0.826600000000     0.000000000000     0     
O        O      0.024000000000     0.849900000000     0.099100000000     0     
O        O      0.954000000000     0.669500000000     0.062100000000     0     
O        O      0.834300000000     0.499000000000     0.060300000000     0     
O        O      0.000000000000     0.512300000000     0.000000000000     0     
O        O      0.026000000000     0.489400000000     0.098800000000     0     
O        O      0.641800000000     0.854900000000     0.098700000000     0     
O        O      0.718100000000     0.668800000000     0.073800000000     0     
O        O      0.665800000000     0.803400000000     0.001900000000     0     
O        O      0.643400000000     0.483800000000     0.100100000000     0     
O        O      0.666200000000     0.529800000000     0.002900000000     0     
O        O      0.436900000000     0.840400000000     0.083200000000     0     
O        O      0.328000000000     0.664400000000     0.073300000000     0     
O        O      0.229000000000     0.846900000000     0.082000000000     0     
O        O      0.438800000000     0.488500000000     0.081400000000     0     
O        O      0.230900000000     0.480900000000     0.081200000000     0     
T        Si     0.952900000000     0.796000000000     0.055200000000     0     
T        Si     0.953600000000     0.542900000000     0.055300000000     0     
T        Si     0.714600000000     0.792100000000     0.058400000000     0     
T        Si     0.715500000000     0.545100000000     0.059000000000     0     
T        Si     0.331800000000     0.788400000000     0.059100000000     0     
T        Si     0.332900000000     0.540900000000     0.058400000000     0     
T        Si     0.527200000000     0.859400000000     0.125600000000     0     
T        Si     0.527200000000     0.472800000000     0.125000000000     0     
T        Si     0.139100000000     0.860900000000     0.125000000000     0     


