data_zeolite

_audit_creation_method RASPA-1.0
_audit_creation_date 2021-6-8
_audit_author_name ''

_cell_length_a    25.11
_cell_length_b    12.733
_cell_length_c    11.51
_cell_angle_alpha 90
_cell_angle_beta  90
_cell_angle_gamma 90
_cell_volume      66240.8

_symmetry_cell_setting          orthorhombic
_symmetry_space_group_name_Hall '-P 2 2'
_symmetry_space_group_name_H-M  'P m m m'
_symmetry_Int_Tables_number     47

loop_
_symmetry_equiv_pos_as_xyz
 'x,y,z'
 '-x,-y,z'
 '-x,y,-z'
 'x,-y,-z'
 '-x,-y,-z'
 'x,y,-z'
 'x,-y,z'
 '-x,y,z'

loop_
_atom_site_label
_atom_site_type_symbol
_atom_site_fract_x
_atom_site_fract_y
_atom_site_fract_z
_atom_site_charge
O        O      0.000000000000     0.162200000000     0.351500000000     0     
O        O      0.078600000000     0.137000000000     0.500000000000     0     
O        O      0.099400000000     0.187900000000     0.282600000000     0     
O        O      0.063800000000     0.000000000000     0.331800000000     0     
O        O      0.378700000000     0.306300000000     0.281700000000     0     
O        O      0.282500000000     0.342700000000     0.358200000000     0     
O        O      0.349300000000     0.500000000000     0.330700000000     0     
O        O      0.363500000000     0.364000000000     0.500000000000     0     
O        O      0.184500000000     0.307400000000     0.286000000000     0     
O        O      0.201600000000     0.370900000000     0.500000000000     0     
O        O      0.216600000000     0.500000000000     0.324800000000     0     
O        O      0.374100000000     0.103400000000     0.319500000000     0     
O        O      0.347600000000     0.178100000000     0.114100000000     0     
O        O      0.447700000000     0.180300000000     0.183300000000     0     
O        O      0.170500000000     0.176700000000     0.113500000000     0     
O        O      0.193000000000     0.103600000000     0.321200000000     0     
O        O      0.180200000000     0.000000000000     0.000000000000     0     
O        O      0.259600000000     0.135300000000     0.000000000000     0     
O        O      0.339100000000     0.000000000000     0.000000000000     0     
O        O      0.337400000000     0.000000000000     0.500000000000     0     
O        O      0.283600000000     0.000000000000     0.305300000000     0     
O        O      0.230400000000     0.000000000000     0.500000000000     0     
O        O      0.500000000000     0.116800000000     0.000000000000     0     
O        O      0.500000000000     0.000000000000     0.187200000000     0     
T        Si     0.060400000000     0.122200000000     0.366800000000     0     
T        Si     0.343800000000     0.378500000000     0.367700000000     0     
T        Si     0.221300000000     0.379900000000     0.367300000000     0     
T        Si     0.386600000000     0.192200000000     0.223800000000     0     
T        Si     0.161800000000     0.193600000000     0.250700000000     0     
T        Si     0.195900000000     0.122500000000     0.000000000000     0     
T        Si     0.323400000000     0.122500000000     0.000000000000     0     
T        Si     0.342500000000     0.000000000000     0.360800000000     0     
T        Si     0.224700000000     0.000000000000     0.360900000000     0     
T        Si     0.500000000000     0.119000000000     0.139600000000     0     


