data_zeolite

_audit_creation_method RASPA-1.0
_audit_creation_date 2021-6-8
_audit_author_name ''

_cell_length_a    20.634
_cell_length_b    20.634
_cell_length_c    8.426
_cell_angle_alpha 90
_cell_angle_beta  90
_cell_angle_gamma 120
_cell_volume      49709.4

_symmetry_cell_setting          hexagonal
_symmetry_space_group_name_Hall 'P 6c -2c'
_symmetry_space_group_name_H-M  'P 63 m c'
_symmetry_Int_Tables_number     186

loop_
_symmetry_equiv_pos_as_xyz
 'x,y,z'
 '-y,x-y,z'
 '-x+y,-x,z'
 '-x,-y,z+1/2'
 'y,-x+y,z+1/2'
 'x-y,x,z+1/2'
 '-y,-x,z'
 '-x+y,y,z'
 'x,x-y,z'
 'y,x,z+1/2'
 'x-y,-y,z+1/2'
 '-x,-x+y,z+1/2'

loop_
_atom_site_label
_atom_site_type_symbol
_atom_site_fract_x
_atom_site_fract_y
_atom_site_fract_z
_atom_site_charge
O        O      0.734500000000     0.075000000000     0.838300000000     0     
O        O      0.832600000000     0.167400000000     0.047000000000     0     
O        O      0.696900000000     0.147900000000     0.037000000000     0     
O        O      0.715400000000     0.039000000000     0.140800000000     0     
O        O      0.723800000000     0.276200000000     0.158200000000     0     
O        O      0.585400000000     0.170800000000     0.101900000000     0     
O        O      0.661100000000     0.155300000000     0.335100000000     0     
O        O      0.582700000000     0.920900000000     0.084400000000     0     
O        O      0.598800000000     0.009900000000     0.319500000000     0     
O        O      0.535300000000     0.070700000000     0.488700000000     0     
T        Si     0.745700000000     0.107300000000     0.016500000000     0     
T        Si     0.666800000000     0.187200000000     0.158100000000     0     
T        Si     0.639600000000     0.973900000000     0.219900000000     0     
T        Si     0.613700000000     0.078700000000     0.433500000000     0     


