data_zeolite

_audit_creation_method RASPA-1.0
_audit_creation_date 2021-6-6
_audit_author_name ''

_cell_length_a    22.862
_cell_length_b    15.656
_cell_length_c    13.935
_cell_angle_alpha 90
_cell_angle_beta  90
_cell_angle_gamma 90
_cell_volume      39901.8

_symmetry_cell_setting          orthorhombic
_symmetry_space_group_name_Hall '-F 2 2'
_symmetry_space_group_name_H-M  'F m m m'
_symmetry_Int_Tables_number     69

loop_
_symmetry_equiv_pos_as_xyz
 'x,y,z'
 '-x,-y,z'
 '-x,y,-z'
 'x,-y,-z'
 '-x,-y,-z'
 'x,y,-z'
 'x,-y,z'
 '-x,y,z'
 'x,y+1/2,z+1/2'
 '-x,-y+1/2,z+1/2'
 '-x,y+1/2,-z+1/2'
 'x,-y+1/2,-z+1/2'
 '-x,-y+1/2,-z+1/2'
 'x,y+1/2,-z+1/2'
 'x,-y+1/2,z+1/2'
 '-x,y+1/2,z+1/2'
 'x+1/2,y,z+1/2'
 '-x+1/2,-y,z+1/2'
 '-x+1/2,y,-z+1/2'
 'x+1/2,-y,-z+1/2'
 '-x+1/2,-y,-z+1/2'
 'x+1/2,y,-z+1/2'
 'x+1/2,-y,z+1/2'
 '-x+1/2,y,z+1/2'
 'x+1/2,y+1/2,z'
 '-x+1/2,-y+1/2,z'
 '-x+1/2,y+1/2,-z'
 'x+1/2,-y+1/2,-z'
 '-x+1/2,-y+1/2,-z'
 'x+1/2,y+1/2,-z'
 'x+1/2,-y+1/2,z'
 '-x+1/2,y+1/2,z'

loop_
_atom_site_label
_atom_site_type_symbol
_atom_site_fract_x
_atom_site_fract_y
_atom_site_fract_z
_atom_site_charge
O        O      0.349200000000     0.084200000000     0.249500000000     0     
O        O      0.442500000000     0.142000000000     0.338500000000     0     
O        O      0.373700000000     0.250000000000     0.250000000000     0     
O        O      0.337600000000     0.177500000000     0.406000000000     0     
O        O      0.250000000000     0.250000000000     0.000000000000     0     
O        O      0.262800000000     0.416200000000     0.000000000000     0     
O        O      0.500000000000     0.123900000000     0.500000000000     0     
O        O      0.500000000000     0.000000000000     0.627900000000     0     
O        O      0.317600000000     0.500000000000     0.404800000000     0     
O        O      0.250000000000     0.500000000000     0.250000000000     0     
T        Si     0.375700000000     0.162500000000     0.310300000000     0     
T        Si     0.296900000000     0.326400000000     0.000000000000     0     
T        Si     0.500000000000     0.101800000000     0.612700000000     0     
T        Si     0.316200000000     0.500000000000     0.289200000000     0     
T        Si     0.277800000000     0.500000000000     0.500000000000     0     


