data_zeolite

_audit_creation_method RASPA-1.0
_audit_creation_date 2021-6-7
_audit_author_name ''

_cell_length_a    7.571
_cell_length_b    18.148
_cell_length_c    25.932
_cell_angle_alpha 90
_cell_angle_beta  90
_cell_angle_gamma 90
_cell_volume      28504.1

_symmetry_cell_setting          orthorhombic
_symmetry_space_group_name_Hall '-P 2ab 2a'
_symmetry_space_group_name_H-M  'P m m n'
_symmetry_Int_Tables_number     59

loop_
_symmetry_equiv_pos_as_xyz
 'x,y,z'
 '-x+1/2,-y+1/2,z'
 '-x,y+1/2,-z'
 'x+1/2,-y,-z'
 '-x,-y,-z'
 'x+1/2,y+1/2,-z'
 'x,-y+1/2,z'
 '-x+1/2,y,z'

loop_
_atom_site_label
_atom_site_type_symbol
_atom_site_fract_x
_atom_site_fract_y
_atom_site_fract_z
_atom_site_charge
O        O      0.576700000000     0.149500000000     0.961400000000     0     
O        O      0.750000000000     0.111200000000     0.044600000000     0     
O        O      0.750000000000     0.250000000000     0.014500000000     0     
O        O      0.576700000000     0.028800000000     0.110600000000     0     
O        O      0.750000000000     0.145700000000     0.143200000000     0     
O        O      0.575900000000     0.127500000000     0.229900000000     0     
O        O      0.750000000000     0.250000000000     0.214200000000     0     
O        O      0.250000000000     0.157000000000     0.929100000000     0     
O        O      0.002500000000     0.109500000000     0.866600000000     0     
O        O      0.014200000000     0.250000000000     0.893400000000     0     
O        O      0.021700000000     0.993500000000     0.204800000000     0     
O        O      0.250000000000     0.989300000000     0.128600000000     0     
O        O      0.250000000000     0.083600000000     0.248100000000     0     
O        O      0.985600000000     0.030200000000     0.302400000000     0     
O        O      0.076100000000     0.125500000000     0.373800000000     0     
O        O      0.250000000000     0.250000000000     0.381100000000     0     
O        O      0.250000000000     0.156400000000     0.458800000000     0     
O        O      0.076400000000     0.126000000000     0.544200000000     0     
O        O      0.250000000000     0.250000000000     0.536600000000     0     
O        O      0.009500000000     0.987900000000     0.398800000000     0     
O        O      0.750000000000     0.075400000000     0.370100000000     0     
O        O      0.250000000000     0.922100000000     0.455600000000     0     
O        O      0.000000000000     0.000000000000     0.500000000000     0     
T        Si     0.046600000000     0.166600000000     0.912300000000     0     
T        Si     0.047100000000     0.975400000000     0.144500000000     0     
T        Si     0.046000000000     0.058700000000     0.246300000000     0     
T        Si     0.954700000000     0.054900000000     0.361400000000     0     
T        Si     0.045900000000     0.946500000000     0.452500000000     0     
T        Si     0.750000000000     0.165500000000     0.995600000000     0     
T        Si     0.750000000000     0.078800000000     0.102400000000     0     
T        Si     0.750000000000     0.162600000000     0.204100000000     0     
T        Si     0.250000000000     0.164300000000     0.397000000000     0     
T        Si     0.250000000000     0.164400000000     0.520500000000     0     


