data_zeolite

_audit_creation_method RASPA-1.0
_audit_creation_date 2021-6-7
_audit_author_name ''

_cell_length_a    14.104
_cell_length_b    18.205
_cell_length_c    7.477
_cell_angle_alpha 90
_cell_angle_beta  98.989
_cell_angle_gamma 90
_cell_volume      30339.9

_symmetry_cell_setting          monoclinic
_symmetry_space_group_name_Hall '-C 2y'
_symmetry_space_group_name_H-M  'C 1 2/m 1'
_symmetry_Int_Tables_number     12

loop_
_symmetry_equiv_pos_as_xyz
 'x,y,z'
 '-x,y,-z'
 '-x,-y,-z'
 'x,-y,z'
 'x+1/2,y+1/2,z'
 '-x+1/2,y+1/2,-z'
 '-x+1/2,-y+1/2,-z'
 'x+1/2,-y+1/2,z'

loop_
_atom_site_label
_atom_site_type_symbol
_atom_site_fract_x
_atom_site_fract_y
_atom_site_fract_z
_atom_site_charge
O        O      0.646000000000     0.000000000000     0.612200000000     0     
O        O      0.692300000000     0.927900000000     0.332900000000     0     
O        O      0.528900000000     0.000000000000     0.303800000000     0     
O        O      0.609000000000     0.072200000000     0.897600000000     0     
O        O      0.325500000000     0.674800000000     0.377200000000     0     
O        O      0.389200000000     0.795000000000     0.242400000000     0     
O        O      0.350900000000     0.794500000000     0.574900000000     0     
O        O      0.500000000000     0.721800000000     0.500000000000     0     
O        O      0.313200000000     0.819400000000     0.901900000000     0     
O        O      0.500000000000     0.823400000000     0.000000000000     0     
T        Si     0.398400000000     0.841300000000     0.062700000000     0     
T        Si     0.391800000000     0.746600000000     0.422900000000     0     
T        Si     0.286400000000     0.842000000000     0.691700000000     0     
T        Si     0.640000000000     0.000000000000     0.395400000000     0     
T        Si     0.583800000000     0.000000000000     0.775400000000     0     


