data_zeolite

_audit_creation_method RASPA-1.0
_audit_creation_date 2021-6-7
_audit_author_name ''

_cell_length_a    9.686
_cell_length_b    12.226
_cell_length_c    22.836
_cell_angle_alpha 90
_cell_angle_beta  90
_cell_angle_gamma 90
_cell_volume      48676.7

_symmetry_cell_setting          orthorhombic
_symmetry_space_group_name_Hall '-P 2ac 2n'
_symmetry_space_group_name_H-M  'P n m a'
_symmetry_Int_Tables_number     62

loop_
_symmetry_equiv_pos_as_xyz
 'x,y,z'
 '-x+1/2,-y,z+1/2'
 '-x,y+1/2,-z'
 'x+1/2,-y+1/2,-z+1/2'
 '-x,-y,-z'
 'x+1/2,y,-z+1/2'
 'x,-y+1/2,z'
 '-x+1/2,y+1/2,z+1/2'

loop_
_atom_site_label
_atom_site_type_symbol
_atom_site_fract_x
_atom_site_fract_y
_atom_site_fract_z
_atom_site_charge
O        O      0.295700000000     0.750000000000     0.850200000000     0     
O        O      0.248400000000     0.918300000000     0.919000000000     0     
O        O      0.497000000000     0.885600000000     0.876400000000     0     
O        O      0.296600000000     0.949200000000     0.806800000000     0     
O        O      0.683100000000     0.750000000000     0.514900000000     0     
O        O      0.684800000000     0.948000000000     0.470200000000     0     
O        O      0.492500000000     0.892100000000     0.545700000000     0     
O        O      0.962500000000     0.456300000000     0.873500000000     0     
O        O      0.765300000000     0.600300000000     0.891800000000     0     
O        O      0.162800000000     0.750000000000     0.678300000000     0     
O        O      0.154900000000     0.542500000000     0.708800000000     0     
O        O      0.958400000000     0.250000000000     0.840800000000     0     
O        O      0.354500000000     0.401100000000     0.728000000000     0     
O        O      0.123100000000     0.389100000000     0.788100000000     0     
T        Si     0.334200000000     0.875800000000     0.863000000000     0     
T        Si     0.652200000000     0.877000000000     0.527900000000     0     
T        Si     0.883900000000     0.527900000000     0.922300000000     0     
T        Si     0.145300000000     0.873500000000     0.654800000000     0     
T        Si     0.974400000000     0.125600000000     0.818600000000     0     
T        Si     0.232500000000     0.470800000000     0.758000000000     0     


