data_zeolite

_audit_creation_method RASPA-1.0
_audit_creation_date 2021-6-7
_audit_author_name ''

_cell_length_a    12.279
_cell_length_b    12.279
_cell_length_c    30.869
_cell_angle_alpha 90
_cell_angle_beta  90
_cell_angle_gamma 120
_cell_volume      36276.2

_symmetry_cell_setting          trigonal
_symmetry_space_group_name_Hall '-P 3 2"'
_symmetry_space_group_name_H-M  'P -3 m 1'
_symmetry_Int_Tables_number     164

loop_
_symmetry_equiv_pos_as_xyz
 'x,y,z'
 '-y,x-y,z'
 '-x+y,-x,z'
 'y,x,-z'
 'x-y,-y,-z'
 '-x,-x+y,-z'
 '-x,-y,-z'
 'y,-x+y,-z'
 'x-y,x,-z'
 '-y,-x,z'
 '-x+y,y,z'
 'x,x-y,z'

loop_
_atom_site_label
_atom_site_type_symbol
_atom_site_fract_x
_atom_site_fract_y
_atom_site_fract_z
_atom_site_charge
O        O      0.690200000000     0.995600000000     0.624200000000     0     
O        O      0.887500000000     0.112500000000     0.675300000000     0     
O        O      0.659000000000     0.021400000000     0.707000000000     0     
O        O      0.737700000000     0.868900000000     0.682700000000     0     
O        O      0.401200000000     0.200600000000     0.761800000000     0     
O        O      0.556200000000     0.112400000000     0.760400000000     0     
O        O      0.326700000000     0.975800000000     0.791300000000     0     
O        O      0.270800000000     0.135400000000     0.825600000000     0     
O        O      0.106200000000     0.212500000000     0.828800000000     0     
O        O      0.311700000000     0.322900000000     0.876500000000     0     
O        O      0.446500000000     0.223300000000     0.902800000000     0     
O        O      0.533500000000     0.067100000000     0.910800000000     0     
O        O      0.346900000000     0.040200000000     0.959800000000     0     
O        O      0.233700000000     0.116800000000     0.013900000000     0     
O        O      0.459800000000     0.229900000000     0.407300000000     0     
O        O      0.529000000000     0.058100000000     0.408100000000     0     
O        O      0.347500000000     0.035700000000     0.459500000000     0     
O        O      0.881600000000     0.118400000000     0.512300000000     0     
T        Si     0.744000000000     0.000100000000     0.672100000000     0     
T        Si     0.411800000000     0.076500000000     0.754800000000     0     
T        Si     0.253400000000     0.256100000000     0.830700000000     0     
T        Si     0.409800000000     0.080100000000     0.912500000000     0     
T        Si     0.412400000000     0.082300000000     0.412700000000     0     
T        Si     0.746700000000     0.000000000000     0.500000000000     0     
T        Si     0.250900000000     0.250900000000     0.000000000000     0     


