data_zeolite

_audit_creation_method RASPA-1.0
_audit_creation_date 2022-1-5
_audit_author_name ''

_cell_length_a    10.4578
_cell_length_b    27.7607
_cell_length_c    27.2023
_cell_angle_alpha 90
_cell_angle_beta  90
_cell_angle_gamma 90
_cell_volume      23691.8

_symmetry_cell_setting          orthorhombic
_symmetry_space_group_name_Hall '-C 2c 2'
_symmetry_space_group_name_H-M  'C m c m'
_symmetry_Int_Tables_number     63

loop_
_symmetry_equiv_pos_as_xyz
 'x,y,z'
 '-x,-y,z+1/2'
 '-x,y,-z+1/2'
 'x,-y,-z'
 '-x,-y,-z'
 'x,y,-z+1/2'
 'x,-y,z+1/2'
 '-x,y,z'
 'x+1/2,y+1/2,z'
 '-x+1/2,-y+1/2,z+1/2'
 '-x+1/2,y+1/2,-z+1/2'
 'x+1/2,-y+1/2,-z'
 '-x+1/2,-y+1/2,-z'
 'x+1/2,y+1/2,-z+1/2'
 'x+1/2,-y+1/2,z+1/2'
 '-x+1/2,y+1/2,z'

loop_
_atom_site_label
_atom_site_type_symbol
_atom_site_fract_x
_atom_site_fract_y
_atom_site_fract_z
_atom_site_charge
Si       Si     0.257820000000     0.221710000000     0.102300000000     0     
Si       Si     0.258220000000     0.024870000000     0.100080000000     0     
Si       Si     0.251240000000     0.125760000000     0.044360000000     0     
Si       Si     0.349670000000     0.179740000000     0.196240000000     0     
Si       Si     0.350990000000     0.070540000000     0.193320000000     0     
Si       Si     0.000000000000     0.266010000000     0.064240000000     0     
Si       Si     0.000000000000     0.475600000000     0.053530000000     0     
Si       Si     0.000000000000     0.018750000000     0.555920000000     0     
Si       Si     0.000000000000     0.230950000000     0.547940000000     0     
Si       Si     0.000000000000     0.366420000000     0.021480000000     0     
Si       Si     0.000000000000     0.124330000000     0.523600000000     0     
O        O      0.126250000000     0.250650000000     0.094150000000     0     
O        O      0.233780000000     0.166870000000     0.085470000000     0     
O        O      0.374150000000     0.246090000000     0.072730000000     0     
O        O      0.289000000000     0.219690000000     0.160260000000     0     
O        O      0.374440000000     0.990110000000     0.084370000000     0     
O        O      0.275190000000     0.074630000000     0.070490000000     0     
O        O      0.124740000000     0.000320000000     0.084740000000     0     
O        O      0.267260000000     0.036070000000     0.158100000000     0     
O        O      0.125520000000     0.123200000000     0.010520000000     0     
O        O      0.373910000000     0.139580000000     0.011680000000     0     
O        O      0.329120000000     0.125620000000     0.176550000000     0     
O        O      0.285920000000     0.184420000000     0.250000000000     0     
O        O      0.500000000000     0.190730000000     0.201670000000     0     
O        O      0.500000000000     0.057130000000     0.187380000000     0     
O        O      0.309770000000     0.064070000000     0.250000000000     0     
O        O      0.000000000000     0.323970000000     0.061790000000     0     
O        O      0.000000000000     0.243240000000     0.009890000000     0     
O        O      0.000000000000     0.417840000000     0.048650000000     0     
O        O      0.000000000000     0.500000000000     0.000000000000     0     
O        O      0.000000000000     0.076790000000     0.557490000000     0     
O        O      0.000000000000     0.000000000000     0.500000000000     0     
O        O      0.000000000000     0.173330000000     0.555280000000     0     


