data_zeolite

_audit_creation_method RASPA-1.0
_audit_creation_date 2021-6-6
_audit_author_name ''

_cell_length_a    14.02
_cell_length_b    13.466
_cell_length_c    10.202
_cell_angle_alpha 90
_cell_angle_beta  107.239
_cell_angle_gamma 90
_cell_volume      22074.5

_symmetry_cell_setting          monoclinic
_symmetry_space_group_name_Hall '-C 2y'
_symmetry_space_group_name_H-M  'C 1 2/m 1'
_symmetry_Int_Tables_number     12

loop_
_symmetry_equiv_pos_as_xyz
 'x,y,z'
 '-x,y,-z'
 '-x,-y,-z'
 'x,-y,z'
 'x+1/2,y+1/2,z'
 '-x+1/2,y+1/2,-z'
 '-x+1/2,-y+1/2,-z'
 'x+1/2,-y+1/2,z'

loop_
_atom_site_label
_atom_site_type_symbol
_atom_site_fract_x
_atom_site_fract_y
_atom_site_fract_z
_atom_site_charge
O        O      0.818300000000     0.841900000000     0.326200000000     0     
O        O      0.764400000000     0.682400000000     0.175500000000     0     
O        O      0.625700000000     0.788600000000     0.232500000000     0     
O        O      0.718900000000     0.860500000000     0.066400000000     0     
O        O      0.441200000000     0.855200000000     0.148700000000     0     
O        O      0.310500000000     0.000000000000     0.122500000000     0     
O        O      0.500000000000     0.357400000000     0.500000000000     0     
O        O      0.572500000000     0.500000000000     0.677600000000     0     
O        O      0.524100000000     0.328100000000     0.762300000000     0     
O        O      0.500000000000     0.275900000000     0.000000000000     0     
T        Si     0.511300000000     0.240700000000     0.154900000000     0     
T        Si     0.731800000000     0.793600000000     0.201400000000     0     
T        Si     0.324600000000     0.884000000000     0.095100000000     0     
T        Si     0.569600000000     0.381800000000     0.652900000000     0     


