data_zeolite

_audit_creation_method RASPA-1.0
_audit_creation_date 2021-6-6
_audit_author_name ''

_cell_length_a    13.674
_cell_length_b    13.674
_cell_length_c    19.695
_cell_angle_alpha 90
_cell_angle_beta  90
_cell_angle_gamma 120
_cell_volume      57405.1

_symmetry_cell_setting          hexagonal
_symmetry_space_group_name_Hall '-P 6c 2c'
_symmetry_space_group_name_H-M  'P 63/m m c'
_symmetry_Int_Tables_number     194

loop_
_symmetry_equiv_pos_as_xyz
 'x,y,z'
 '-y,x-y,z'
 '-x+y,-x,z'
 '-x,-y,z+1/2'
 'y,-x+y,z+1/2'
 'x-y,x,z+1/2'
 'y,x,-z'
 'x-y,-y,-z'
 '-x,-x+y,-z'
 '-y,-x,-z+1/2'
 '-x+y,y,-z+1/2'
 'x,x-y,-z+1/2'
 '-x,-y,-z'
 'y,-x+y,-z'
 'x-y,x,-z'
 'x,y,-z+1/2'
 '-y,x-y,-z+1/2'
 '-x+y,-x,-z+1/2'
 '-y,-x,z'
 '-x+y,y,z'
 'x,x-y,z'
 'y,x,z+1/2'
 'x-y,-y,z+1/2'
 '-x,-x+y,z+1/2'

loop_
_atom_site_label
_atom_site_type_symbol
_atom_site_fract_x
_atom_site_fract_y
_atom_site_fract_z
_atom_site_charge
O        O      0.098000000000     0.196000000000     0.092000000000     0     
O        O      0.879700000000     0.120300000000     0.098600000000     0     
O        O      0.000000000000     0.257700000000     0.000000000000     0     
O        O      0.023200000000     0.333400000000     0.125000000000     0     
O        O      0.235400000000     0.470900000000     0.157700000000     0     
O        O      0.332500000000     0.408500000000     0.250000000000     0     
O        O      0.453700000000     0.546300000000     0.151800000000     0     
T        Si     0.000300000000     0.226800000000     0.078800000000     0     
T        Si     0.332900000000     0.439800000000     0.171200000000     0     


