data_zeolite

_audit_creation_method RASPA-1.0
_audit_creation_date 2021-6-7
_audit_author_name ''

_cell_length_a    8.22809
_cell_length_b    22.4563
_cell_length_c    37.8911
_cell_angle_alpha 90
_cell_angle_beta  90
_cell_angle_gamma 90
_cell_volume      56009.8

_symmetry_cell_setting          orthorhombic
_symmetry_space_group_name_Hall '-C 2ac 2'
_symmetry_space_group_name_H-M  'C m c a'
_symmetry_Int_Tables_number     64

loop_
_symmetry_equiv_pos_as_xyz
 'x,y,z'
 '-x,-y+1/2,z+1/2'
 '-x,y+1/2,-z+1/2'
 'x,-y,-z'
 '-x,-y,-z'
 'x,y+1/2,-z+1/2'
 'x,-y+1/2,z+1/2'
 '-x,y,z'
 'x+1/2,y+1/2,z'
 '-x+1/2,-y,z+1/2'
 '-x+1/2,y,-z+1/2'
 'x+1/2,-y+1/2,-z'
 '-x+1/2,-y+1/2,-z'
 'x+1/2,y,-z+1/2'
 'x+1/2,-y,z+1/2'
 '-x+1/2,y+1/2,z'

loop_
_atom_site_label
_atom_site_type_symbol
_atom_site_fract_x
_atom_site_fract_y
_atom_site_fract_z
_atom_site_charge
T        Si     0.187850000000     0.109530000000     0.053240000000     0     
T        Si     0.185960000000     0.047280000000     0.145140000000     0     
T        Si     0.186150000000     0.316350000000     0.007610000000     0     
T        Si     0.310860000000     0.168370000000     0.121480000000     0     
T        Si     0.189720000000     0.350480000000     0.287780000000     0     
T        Si     0.188010000000     0.479490000000     0.210650000000     0     
T        Si     0.189860000000     0.294900000000     0.144680000000     0     
T        Si     0.314970000000     0.361270000000     0.077800000000     0     
T        Si     0.185140000000     0.489200000000     0.078140000000     0     
O        O      0.257300000000     0.042490000000     0.052620000000     0     
O        O      0.203410000000     0.137270000000     0.014190000000     0     
O        O      0.290320000000     0.149210000000     0.080770000000     0     
O        O      0.000000000000     0.108580000000     0.065070000000     0     
O        O      0.241010000000     0.116060000000     0.146310000000     0     
O        O      0.302770000000     0.011520000000     0.118440000000     0     
O        O      0.202890000000     0.017960000000     0.183730000000     0     
O        O      0.000000000000     0.042710000000     0.132180000000     0     
O        O      0.250000000000     0.250000000000     0.000000000000     0     
O        O      0.000000000000     0.322360000000     0.995020000000     0     
O        O      0.198350000000     0.329710000000     0.049270000000     0     
O        O      0.211390000000     0.228770000000     0.129020000000     0     
O        O      0.500000000000     0.179000000000     0.130260000000     0     
O        O      0.291150000000     0.409570000000     0.297570000000     0     
O        O      0.250000000000     0.326030000000     0.250000000000     0     
O        O      0.217290000000     0.301200000000     0.318070000000     0     
O        O      0.000000000000     0.367390000000     0.285440000000     0     
O        O      0.250000000000     0.493720000000     0.250000000000     0     
O        O      0.000000000000     0.498130000000     0.206700000000     0     
O        O      0.261660000000     0.342790000000     0.117170000000     0     
O        O      0.000000000000     0.308580000000     0.150850000000     0     
O        O      0.301920000000     0.432350000000     0.073010000000     0     
O        O      0.500000000000     0.340800000000     0.071100000000     0     
O        O      0.000000000000     0.471420000000     0.069290000000     0     


