data_zeolite

_audit_creation_method RASPA-1.0
_audit_creation_date 2022-1-5
_audit_author_name ''

_cell_length_a    19.902
_cell_length_b    10.1561
_cell_length_c    24.6892
_cell_angle_alpha 90
_cell_angle_beta  105.88
_cell_angle_gamma 90
_cell_volume      57598.7

_symmetry_cell_setting          monoclinic
_symmetry_space_group_name_Hall '-P 2ybc'
_symmetry_space_group_name_H-M  'P 1 21/c 1'
_symmetry_Int_Tables_number     14

loop_
_symmetry_equiv_pos_as_xyz
 'x,y,z'
 '-x,y+1/2,-z+1/2'
 '-x,-y,-z'
 'x,-y+1/2,z+1/2'

loop_
_atom_site_label
_atom_site_type_symbol
_atom_site_fract_x
_atom_site_fract_y
_atom_site_fract_z
_atom_site_charge
T        Si     0.058510000000     0.149180000000     0.111290000000     0     
T        Si     0.151030000000     0.096470000000     0.032850000000     0     
T        Si     0.303880000000     0.143310000000     0.028360000000     0     
T        Si     0.433830000000     0.027690000000     0.114390000000     0     
T        Si     0.035480000000     0.406150000000     0.173020000000     0     
T        Si     0.060780000000     0.654990000000     0.110420000000     0     
T        Si     0.145410000000     0.600700000000     0.026800000000     0     
T        Si     0.298580000000     0.650650000000     0.018960000000     0     
T        Si     0.433550000000     0.724210000000     0.103430000000     0     
T        Si     0.101620000000     0.398610000000     0.302610000000     0     
T        Si     0.174040000000     0.151620000000     0.364530000000     0     
T        Si     0.094510000000     0.156640000000     0.459020000000     0     
T        Si     0.312300000000     0.112450000000     0.458570000000     0     
T        Si     0.472770000000     0.142060000000     0.474710000000     0     
T        Si     0.170850000000     0.638300000000     0.364110000000     0     
T        Si     0.092670000000     0.646080000000     0.460800000000     0     
T        Si     0.311570000000     0.594030000000     0.449700000000     0     
T        Si     0.470320000000     0.610150000000     0.452830000000     0     
T        Si     0.113540000000     0.901030000000     0.308290000000     0     
T        Si     0.046550000000     0.903670000000     0.178480000000     0     
O        O      0.065570000000     0.051200000000     0.163850000000     0     
O        O      0.010700000000     0.612320000000     0.437850000000     0     
O        O      0.052190000000     0.299200000000     0.130340000000     0     
O        O      0.125940000000     0.133130000000     0.087720000000     0     
O        O      0.127490000000     0.948210000000     0.013440000000     0     
O        O      0.115530000000     0.302800000000     0.482870000000     0     
O        O      0.234760000000     0.107410000000     0.047210000000     0     
O        O      0.371740000000     0.123310000000     0.080980000000     0     
O        O      0.299380000000     0.294100000000     0.007440000000     0     
O        O      0.309850000000     0.451170000000     0.477530000000     0     
O        O      0.440880000000     0.034680000000     0.180850000000     0     
O        O      0.493840000000     0.573560000000     0.397190000000     0     
O        O      0.417340000000     0.878710000000     0.092510000000     0     
O        O      0.076150000000     0.364880000000     0.236470000000     0     
O        O      0.047190000000     0.911660000000     0.333480000000     0     
O        O      0.061290000000     0.549410000000     0.159180000000     0     
O        O      0.125730000000     0.625920000000     0.085030000000     0     
O        O      0.067870000000     0.801680000000     0.136070000000     0     
O        O      0.010750000000     0.142690000000     0.439280000000     0     
O        O      0.126660000000     0.451010000000     0.006950000000     0     
O        O      0.102210000000     0.798110000000     0.479880000000     0     
O        O      0.227770000000     0.625520000000     0.036900000000     0     
O        O      0.306690000000     0.959960000000     0.474510000000     0     
O        O      0.363970000000     0.641610000000     0.074280000000     0     
O        O      0.296750000000     0.794580000000     0.991350000000     0     
O        O      0.494810000000     0.679690000000     0.076240000000     0     
O        O      0.456890000000     0.695580000000     0.170100000000     0     
O        O      0.159470000000     0.293190000000     0.334300000000     0     
O        O      0.136440000000     0.542920000000     0.311730000000     0     
O        O      0.036240000000     0.393660000000     0.329120000000     0     
O        O      0.124730000000     0.131550000000     0.405760000000     0     
O        O      0.155730000000     0.038300000000     0.317110000000     0     
O        O      0.254850000000     0.142600000000     0.399920000000     0     
O        O      0.388930000000     0.140810000000     0.451290000000     0     
O        O      0.500000000000     0.000000000000     0.500000000000     0     
O        O      0.496250000000     0.250570000000     0.024240000000     0     
O        O      0.165110000000     0.788040000000     0.341940000000     0     
O        O      0.251770000000     0.600530000000     0.390680000000     0     
O        O      0.129580000000     0.620910000000     0.411320000000     0     
O        O      0.386550000000     0.617880000000     0.438430000000     0     
O        O      0.500000000000     0.500000000000     0.500000000000     0     
O        O      0.088180000000     0.866560000000     0.242210000000     0     


