data_zeolite

_audit_creation_method RASPA-1.0
_audit_creation_date 2021-6-7
_audit_author_name ''

_cell_length_a    41.691
_cell_length_b    12.713
_cell_length_c    12.711
_cell_angle_alpha 90
_cell_angle_beta  90
_cell_angle_gamma 90
_cell_volume      60633.5

_symmetry_cell_setting          orthorhombic
_symmetry_space_group_name_Hall '-P 2 2ab'
_symmetry_space_group_name_H-M  'P b a m'
_symmetry_Int_Tables_number     55

loop_
_symmetry_equiv_pos_as_xyz
 'x,y,z'
 '-x,-y,z'
 '-x+1/2,y+1/2,-z'
 'x+1/2,-y+1/2,-z'
 '-x,-y,-z'
 'x,y,-z'
 'x+1/2,-y+1/2,z'
 '-x+1/2,y+1/2,z'

loop_
_atom_site_label
_atom_site_type_symbol
_atom_site_fract_x
_atom_site_fract_y
_atom_site_fract_z
_atom_site_charge
O        O      0.409900000000     0.812300000000     0.138200000000     0     
O        O      0.379400000000     0.929600000000     0.000000000000     0     
O        O      0.347700000000     0.839800000000     0.154700000000     0     
O        O      0.386400000000     0.997300000000     0.194100000000     0     
O        O      0.426400000000     0.668000000000     0.000000000000     0     
O        O      0.388000000000     0.619600000000     0.156800000000     0     
O        O      0.448700000000     0.657500000000     0.193100000000     0     
O        O      0.357500000000     0.529600000000     0.000000000000     0     
O        O      0.325800000000     0.646900000000     0.135300000000     0     
O        O      0.348500000000     0.462100000000     0.192500000000     0     
O        O      0.308400000000     0.792800000000     0.000000000000     0     
O        O      0.287000000000     0.799800000000     0.193900000000     0     
O        O      0.397100000000     0.785600000000     0.500000000000     0     
O        O      0.340600000000     0.875900000000     0.500000000000     0     
O        O      0.389100000000     0.961800000000     0.396700000000     0     
O        O      0.395500000000     0.579600000000     0.500000000000     0     
O        O      0.441000000000     0.680600000000     0.396500000000     0     
O        O      0.339000000000     0.670000000000     0.500000000000     0     
O        O      0.347200000000     0.494100000000     0.396500000000     0     
O        O      0.295000000000     0.775000000000     0.396800000000     0     
O        O      0.323300000000     0.320100000000     0.317700000000     0     
O        O      0.385600000000     0.350400000000     0.317500000000     0     
O        O      0.342600000000     0.078000000000     0.320900000000     0     
O        O      0.401700000000     0.150700000000     0.323800000000     0     
O        O      0.239400000000     0.840600000000     0.323500000000     0     
O        O      0.289800000000     0.965100000000     0.318300000000     0     
O        O      0.454500000000     0.493900000000     0.320400000000     0     
O        O      0.498300000000     0.642600000000     0.320600000000     0     
O        O      0.293400000000     0.328000000000     0.500000000000     0     
O        O      0.287700000000     0.161700000000     0.378900000000     0     
O        O      0.315400000000     0.021500000000     0.500000000000     0     
O        O      0.395200000000     0.257500000000     0.500000000000     0     
O        O      0.443800000000     0.296600000000     0.374100000000     0     
O        O      0.476600000000     0.420200000000     0.500000000000     0     
T        Si     0.381000000000     0.894800000000     0.121700000000     0     
T        Si     0.418300000000     0.689800000000     0.121900000000     0     
T        Si     0.354900000000     0.564700000000     0.121400000000     0     
T        Si     0.317200000000     0.769600000000     0.121000000000     0     
T        Si     0.378700000000     0.896900000000     0.500000000000     0     
T        Si     0.418700000000     0.680900000000     0.500000000000     0     
T        Si     0.357400000000     0.558700000000     0.500000000000     0     
T        Si     0.317400000000     0.774700000000     0.500000000000     0     
T        Si     0.351200000000     0.406700000000     0.306000000000     0     
T        Si     0.379800000000     0.047400000000     0.308400000000     0     
T        Si     0.277700000000     0.845300000000     0.308100000000     0     
T        Si     0.460600000000     0.618300000000     0.307100000000     0     
T        Si     0.291100000000     0.287900000000     0.380100000000     0     
T        Si     0.309000000000     0.056100000000     0.379900000000     0     
T        Si     0.406500000000     0.263500000000     0.379100000000     0     
T        Si     0.469100000000     0.392200000000     0.379000000000     0     


