data_zeolite

_audit_creation_method RASPA-1.0
_audit_creation_date 2021-6-7
_audit_author_name ''

_cell_length_a    7.543
_cell_length_b    14.388
_cell_length_c    19.016
_cell_angle_alpha 90
_cell_angle_beta  90
_cell_angle_gamma 90
_cell_volume      33020.5

_symmetry_cell_setting          orthorhombic
_symmetry_space_group_name_Hall 'I 2 -2'
_symmetry_space_group_name_H-M  'I m m 2'
_symmetry_Int_Tables_number     44

loop_
_symmetry_equiv_pos_as_xyz
 'x,y,z'
 '-x,-y,z'
 'x,-y,z'
 '-x,y,z'
 'x+1/2,y+1/2,z+1/2'
 '-x+1/2,-y+1/2,z+1/2'
 'x+1/2,-y+1/2,z+1/2'
 '-x+1/2,y+1/2,z+1/2'

loop_
_atom_site_label
_atom_site_type_symbol
_atom_site_fract_x
_atom_site_fract_y
_atom_site_fract_z
_atom_site_charge
O        O      0.325800000000     0.223000000000     0.252100000000     0     
O        O      0.250600000000     0.266800000000     0.121200000000     0     
O        O      0.000000000000     0.205700000000     0.205400000000     0     
O        O      0.248900000000     0.091500000000     0.161900000000     0     
O        O      0.251000000000     0.591400000000     0.033200000000     0     
O        O      0.174400000000     0.759100000000     0.987700000000     0     
O        O      0.500000000000     0.718700000000     0.025300000000     0     
O        O      0.000000000000     0.091300000000     0.948900000000     0     
O        O      0.000000000000     0.238300000000     0.867900000000     0     
O        O      0.000000000000     0.591100000000     0.819100000000     0     
O        O      0.500000000000     0.000000000000     0.095300000000     0     
O        O      0.174600000000     0.000000000000     0.046300000000     0     
O        O      0.500000000000     0.500000000000     0.965700000000     0     
O        O      0.174200000000     0.500000000000     0.917200000000     0     
T        Si     0.206300000000     0.196800000000     0.184800000000     0     
T        Si     0.293700000000     0.700400000000     0.042100000000     0     
T        Si     0.000000000000     0.203200000000     0.948200000000     0     
T        Si     0.000000000000     0.699300000000     0.797700000000     0     
T        Si     0.293500000000     0.000000000000     0.116600000000     0     
T        Si     0.293600000000     0.500000000000     0.987300000000     0     
T        Si     0.000000000000     0.500000000000     0.868300000000     0     
T        Si     0.000000000000     0.000000000000     0.997800000000     0     


