data_zeolite

_audit_creation_method RASPA-1.0
_audit_creation_date 2021-6-6
_audit_author_name ''

_cell_length_a    15.1512
_cell_length_b    15.1512
_cell_length_c    11.848
_cell_angle_alpha 90
_cell_angle_beta  90
_cell_angle_gamma 90
_cell_volume      32637.6

_symmetry_cell_setting          tetragonal
_symmetry_space_group_name_Hall '-P 4 2ab'
_symmetry_space_group_name_H-M  'P 4/m b m'
_symmetry_Int_Tables_number     127

loop_
_symmetry_equiv_pos_as_xyz
 'x,y,z'
 '-x,-y,z'
 '-y,x,z'
 'y,-x,z'
 '-x+1/2,y+1/2,-z'
 'x+1/2,-y+1/2,-z'
 'y+1/2,x+1/2,-z'
 '-y+1/2,-x+1/2,-z'
 '-x,-y,-z'
 'x,y,-z'
 'y,-x,-z'
 '-y,x,-z'
 'x+1/2,-y+1/2,z'
 '-x+1/2,y+1/2,z'
 '-y+1/2,-x+1/2,z'
 'y+1/2,x+1/2,z'

loop_
_atom_site_label
_atom_site_type_symbol
_atom_site_fract_x
_atom_site_fract_y
_atom_site_fract_z
_atom_site_charge
T        Si     0.091070000000     0.732010000000     0.187490000000     0     
T        Si     0.023200000000     0.857920000000     0.368280000000     0     
T        Si     0.030870000000     0.319410000000     0.000000000000     0     
T        Si     0.169730000000     0.180760000000     0.000000000000     0     
O        O      0.122030000000     0.814510000000     0.111360000000     0     
O        O      0.037760000000     0.769690000000     0.294690000000     0     
O        O      0.175930000000     0.675930000000     0.227180000000     0     
O        O      0.028800000000     0.669490000000     0.111570000000     0     
O        O      0.071360000000     0.221060000000     0.000000000000     0     
O        O      0.109840000000     0.390160000000     0.000000000000     0     
O        O      0.238720000000     0.261280000000     0.000000000000     0     
O        O      0.099640000000     0.928340000000     0.339860000000     0     
O        O      0.027380000000     0.832360000000     0.500000000000     0     


