data_zeolite

_audit_creation_method RASPA-1.0
_audit_creation_date 2021-6-7
_audit_author_name ''

_cell_length_a    9.629
_cell_length_b    30.394
_cell_length_c    7.249
_cell_angle_alpha 90
_cell_angle_beta  90.45
_cell_angle_gamma 90
_cell_volume      25457.5

_symmetry_cell_setting          monoclinic
_symmetry_space_group_name_Hall '-C 2y'
_symmetry_space_group_name_H-M  'C 1 2/m 1'
_symmetry_Int_Tables_number     12

loop_
_symmetry_equiv_pos_as_xyz
 'x,y,z'
 '-x,y,-z'
 '-x,-y,-z'
 'x,-y,z'
 'x+1/2,y+1/2,z'
 '-x+1/2,y+1/2,-z'
 '-x+1/2,-y+1/2,-z'
 'x+1/2,-y+1/2,z'

loop_
_atom_site_label
_atom_site_type_symbol
_atom_site_fract_x
_atom_site_fract_y
_atom_site_fract_z
_atom_site_charge
O        O      0.272300000000     0.144100000000     0.139700000000     0     
O        O      0.047200000000     0.186100000000     0.239900000000     0     
O        O      0.267300000000     0.185600000000     0.457100000000     0     
O        O      0.119000000000     0.113500000000     0.410900000000     0     
O        O      0.000000000000     0.389000000000     0.000000000000     0     
O        O      0.164900000000     0.340500000000     0.207700000000     0     
O        O      0.242000000000     0.419600000000     0.105600000000     0     
O        O      0.158500000000     0.000000000000     0.919300000000     0     
O        O      0.000000000000     0.067600000000     0.000000000000     0     
O        O      0.069200000000     0.052600000000     0.656800000000     0     
O        O      0.052900000000     0.269000000000     0.345000000000     0     
O        O      0.315300000000     0.268900000000     0.255100000000     0     
O        O      0.000000000000     0.249200000000     0.000000000000     0     
T        Si     0.122000000000     0.050300000000     0.867800000000     0     
T        Si     0.176700000000     0.157200000000     0.312300000000     0     
T        Si     0.159000000000     0.376000000000     0.043300000000     0     
T        Si     0.191800000000     0.298500000000     0.337900000000     0     
T        Si     0.978500000000     0.233900000000     0.210400000000     0     
T        Si     0.000000000000     0.083300000000     0.500000000000     0     


