data_zeolite

_audit_creation_method RASPA-1.0
_audit_creation_date 2021-6-7
_audit_author_name ''

_cell_length_a    16.0185
_cell_length_b    9.6655
_cell_length_c    16.8331
_cell_angle_alpha 90
_cell_angle_beta  90
_cell_angle_gamma 90
_cell_volume      31274.6

_symmetry_cell_setting          orthorhombic
_symmetry_space_group_name_Hall '-P 2ac 2ab'
_symmetry_space_group_name_H-M  'P b c a'
_symmetry_Int_Tables_number     61

loop_
_symmetry_equiv_pos_as_xyz
 'x,y,z'
 '-x+1/2,-y,z+1/2'
 '-x,y+1/2,-z+1/2'
 'x+1/2,-y+1/2,-z'
 '-x,-y,-z'
 'x+1/2,y,-z+1/2'
 'x,-y+1/2,z+1/2'
 '-x+1/2,y+1/2,z'

loop_
_atom_site_label
_atom_site_type_symbol
_atom_site_fract_x
_atom_site_fract_y
_atom_site_fract_z
_atom_site_charge
O        O      0.182600000000     0.048900000000     0.994600000000     0     
O        O      0.290100000000     0.160400000000     0.095200000000     0     
O        O      0.216800000000     0.924800000000     0.129800000000     0     
O        O      0.130800000000     0.155400000000     0.129800000000     0     
O        O      0.076200000000     0.788200000000     0.150400000000     0     
O        O      0.203900000000     0.740300000000     0.244000000000     0     
O        O      0.957700000000     0.783600000000     0.259500000000     0     
O        O      0.925000000000     0.874300000000     0.115200000000     0     
O        O      0.019000000000     0.019600000000     0.212600000000     0     
O        O      0.158400000000     0.105400000000     0.280400000000     0     
O        O      0.300000000000     0.036900000000     0.347700000000     0     
O        O      0.272600000000     0.774600000000     0.383500000000     0     
T        Si     0.205300000000     0.072200000000     0.086700000000     0     
T        Si     0.994600000000     0.865900000000     0.184100000000     0     
T        Si     0.245600000000     0.163900000000     0.314100000000     0     
T        Si     0.328400000000     0.909100000000     0.402700000000     0     
T        Si     0.176400000000     0.778500000000     0.154700000000     0     
T        Si     0.087500000000     0.141300000000     0.215800000000     0     


