data_zeolite

_audit_creation_method RASPA-1.0
_audit_creation_date 2022-1-5
_audit_author_name ''

_cell_length_a    14.4047
_cell_length_b    14.4047
_cell_length_c    50.3545
_cell_angle_alpha 90
_cell_angle_beta  90
_cell_angle_gamma 120
_cell_volume      81437.1

_symmetry_cell_setting          hexagonal
_symmetry_space_group_name_Hall 'P 6c -2c'
_symmetry_space_group_name_H-M  'P 63 m c'
_symmetry_Int_Tables_number     186

loop_
_symmetry_equiv_pos_as_xyz
 'x,y,z'
 '-y,x-y,z'
 '-x+y,-x,z'
 '-x,-y,z+1/2'
 'y,-x+y,z+1/2'
 'x-y,x,z+1/2'
 '-y,-x,z'
 '-x+y,y,z'
 'x,x-y,z'
 'y,x,z+1/2'
 'x-y,-y,z+1/2'
 '-x,-x+y,z+1/2'

loop_
_atom_site_label
_atom_site_type_symbol
_atom_site_fract_x
_atom_site_fract_y
_atom_site_fract_z
_atom_site_charge
Si       Si     0.725910000000     0.666610000000     0.919450000000     0     
Si       Si     0.273430000000     0.332890000000     0.080170000000     0     
Si       Si     0.940640000000     0.274050000000     0.855620000000     0     
Si       Si     0.059580000000     0.726450000000     0.144030000000     0     
Si       Si     0.098520000000     0.901480000000     0.931180000000     0     
Si       Si     0.901780000000     0.098220000000     0.068340000000     0     
Si       Si     0.867640000000     0.433820000000     0.568100000000     0     
Si       Si     0.136300000000     0.568150000000     0.431240000000     0     
Si       Si     0.123450000000     0.876550000000     0.827460000000     0     
Si       Si     0.876630000000     0.123370000000     0.172200000000     0     
Si       Si     0.543160000000     0.456840000000     0.827390000000     0     
Si       Si     0.457010000000     0.542990000000     0.171850000000     0     
Si       Si     0.459910000000     0.540090000000     0.779980000000     0     
Si       Si     0.539920000000     0.460080000000     0.219340000000     0     
Si       Si     0.793160000000     0.206840000000     0.280080000000     0     
Si       Si     0.206960000000     0.793040000000     0.719490000000     0     
Si       Si     0.333330000000     0.666670000000     0.467790000000     0     
Si       Si     0.333330000000     0.666670000000     0.103910000000     0     
Si       Si     0.666670000000     0.333330000000     0.894750000000     0     
Si       Si     0.666670000000     0.333330000000     0.830890000000     0     
Si       Si     0.333330000000     0.666670000000     0.167770000000     0     
Si       Si     0.000000000000     0.000000000000     0.967750000000     0     
Si       Si     0.000000000000     0.000000000000     0.031620000000     0     
Si       Si     0.000000000000     0.000000000000     0.894700000000     0     
Si       Si     0.000000000000     0.000000000000     0.104980000000     0     
Si       Si     0.000000000000     0.000000000000     0.830840000000     0     
Si       Si     0.000000000000     0.000000000000     0.168840000000     0     
O        O      0.878180000000     0.939090000000     0.957170000000     0     
O        O      0.000000000000     0.000000000000     0.999690000000     0     
O        O      0.121700000000     0.060850000000     0.042270000000     0     
O        O      0.605740000000     0.211480000000     0.957230000000     0     
O        O      0.333330000000     0.666670000000     0.499760000000     0     
O        O      0.399080000000     0.798160000000     0.041160000000     0     
O        O      0.043650000000     0.772830000000     0.930780000000     0     
O        O      0.060960000000     0.939040000000     0.905170000000     0     
O        O      0.956720000000     0.226830000000     0.068720000000     0     
O        O      0.939100000000     0.060900000000     0.094430000000     0     
O        O      0.941200000000     0.562380000000     0.569200000000     0     
O        O      0.788420000000     0.394210000000     0.593340000000     0     
O        O      0.062510000000     0.439490000000     0.430850000000     0     
O        O      0.211420000000     0.605710000000     0.405230000000     0     
O        O      0.833330000000     0.666660000000     0.928340000000     0     
O        O      0.719830000000     0.666410000000     0.887540000000     0     
O        O      0.167710000000     0.335420000000     0.070900000000     0     
O        O      0.277590000000     0.331960000000     0.112090000000     0     
O        O      0.000000000000     0.000000000000     0.862770000000     0     
O        O      0.000000000000     0.000000000000     0.136910000000     0     
O        O      0.666670000000     0.333330000000     0.862820000000     0     
O        O      0.333330000000     0.666670000000     0.135850000000     0     
O        O      0.878640000000     0.939320000000     0.820040000000     0     
O        O      0.121280000000     0.060640000000     0.179690000000     0     
O        O      0.605990000000     0.211980000000     0.820090000000     0     
O        O      0.393960000000     0.787920000000     0.178660000000     0     
O        O      0.833240000000     0.166760000000     0.846680000000     0     
O        O      0.045210000000     0.273630000000     0.844490000000     0     
O        O      0.940630000000     0.378710000000     0.844400000000     0     
O        O      0.167080000000     0.832920000000     0.153320000000     0     
O        O      0.954960000000     0.726740000000     0.155160000000     0     
O        O      0.058410000000     0.620740000000     0.154870000000     0     
O        O      0.156480000000     0.843520000000     0.800020000000     0     
O        O      0.843480000000     0.156520000000     0.199600000000     0     
O        O      0.510300000000     0.489700000000     0.799900000000     0     
O        O      0.489420000000     0.510580000000     0.199480000000     0     
O        O      0.480460000000     0.519540000000     0.749670000000     0     
O        O      0.515190000000     0.666590000000     0.785650000000     0     
O        O      0.666520000000     0.515220000000     0.213800000000     0     
O        O      0.813700000000     0.186300000000     0.249770000000     0     


