data_zeolite

_audit_creation_method RASPA-1.0
_audit_creation_date 2021-6-6
_audit_author_name ''

_cell_length_a    13.8761
_cell_length_b    35.745
_cell_length_c    22.4869
_cell_angle_alpha 90
_cell_angle_beta  90
_cell_angle_gamma 90
_cell_volume      44614.1

_symmetry_cell_setting          orthorhombic
_symmetry_space_group_name_Hall '-F 2 2'
_symmetry_space_group_name_H-M  'F m m m'
_symmetry_Int_Tables_number     69

loop_
_symmetry_equiv_pos_as_xyz
 'x,y,z'
 '-x,-y,z'
 '-x,y,-z'
 'x,-y,-z'
 '-x,-y,-z'
 'x,y,-z'
 'x,-y,z'
 '-x,y,z'
 'x,y+1/2,z+1/2'
 '-x,-y+1/2,z+1/2'
 '-x,y+1/2,-z+1/2'
 'x,-y+1/2,-z+1/2'
 '-x,-y+1/2,-z+1/2'
 'x,y+1/2,-z+1/2'
 'x,-y+1/2,z+1/2'
 '-x,y+1/2,z+1/2'
 'x+1/2,y,z+1/2'
 '-x+1/2,-y,z+1/2'
 '-x+1/2,y,-z+1/2'
 'x+1/2,-y,-z+1/2'
 '-x+1/2,-y,-z+1/2'
 'x+1/2,y,-z+1/2'
 'x+1/2,-y,z+1/2'
 '-x+1/2,y,z+1/2'
 'x+1/2,y+1/2,z'
 '-x+1/2,-y+1/2,z'
 '-x+1/2,y+1/2,-z'
 'x+1/2,-y+1/2,-z'
 '-x+1/2,-y+1/2,-z'
 'x+1/2,y+1/2,-z'
 'x+1/2,-y+1/2,z'
 '-x+1/2,y+1/2,z'

loop_
_atom_site_label
_atom_site_type_symbol
_atom_site_fract_x
_atom_site_fract_y
_atom_site_fract_z
_atom_site_charge
T        Si     0.196600000000     0.074600000000     0.372700000000     0     
T        Si     0.210700000000     0.145100000000     0.184200000000     0     
T        Si     0.187800000000     0.213200000000     0.380200000000     0     
T        Si     0.110400000000     0.176100000000     0.500000000000     0     
T        Si     0.110900000000     0.413900000000     0.000000000000     0     
T        Si     0.211900000000     0.000000000000     0.182500000000     0     
T        Si     0.000000000000     0.075600000000     0.298700000000     0     
T        Si     0.000000000000     0.149700000000     0.222900000000     0     
T        Si     0.000000000000     0.220500000000     0.303900000000     0     
T        Si     0.000000000000     0.000000000000     0.221900000000     0     
O        O      0.261700000000     0.111000000000     0.359600000000     0     
O        O      0.168500000000     0.071700000000     0.442100000000     0     
O        O      0.249300000000     0.036900000000     0.351000000000     0     
O        O      0.095700000000     0.079500000000     0.338300000000     0     
O        O      0.257000000000     0.184000000000     0.162100000000     0     
O        O      0.250000000000     0.136100000000     0.250000000000     0     
O        O      0.096200000000     0.152600000000     0.183200000000     0     
O        O      0.250000000000     0.250000000000     0.395000000000     0     
O        O      0.161900000000     0.192300000000     0.441400000000     0     
O        O      0.093300000000     0.227100000000     0.345100000000     0     
O        O      0.000000000000     0.189900000000     0.500000000000     0     
O        O      0.114400000000     0.131200000000     0.500000000000     0     
O        O      0.000000000000     0.427200000000     0.000000000000     0     
O        O      0.095700000000     0.000000000000     0.181500000000     0     
O        O      0.250000000000     0.000000000000     0.250000000000     0     
O        O      0.000000000000     0.107700000000     0.248500000000     0     
O        O      0.000000000000     0.036200000000     0.264300000000     0     
O        O      0.000000000000     0.178700000000     0.277500000000     0     
O        O      0.000000000000     0.250000000000     0.250000000000     0     


