data_zeolite

_audit_creation_method RASPA-1.0
_audit_creation_date 2021-6-7
_audit_author_name ''

_cell_length_a    9.877
_cell_length_b    14.075
_cell_length_c    28.131
_cell_angle_alpha 90
_cell_angle_beta  90
_cell_angle_gamma 90
_cell_volume      23464.4

_symmetry_cell_setting          orthorhombic
_symmetry_space_group_name_Hall '-C 2c 2'
_symmetry_space_group_name_H-M  'C m c m'
_symmetry_Int_Tables_number     63

loop_
_symmetry_equiv_pos_as_xyz
 'x,y,z'
 '-x,-y,z+1/2'
 '-x,y,-z+1/2'
 'x,-y,-z'
 '-x,-y,-z'
 'x,y,-z+1/2'
 'x,-y,z+1/2'
 '-x,y,z'
 'x+1/2,y+1/2,z'
 '-x+1/2,-y+1/2,z+1/2'
 '-x+1/2,y+1/2,-z+1/2'
 'x+1/2,-y+1/2,-z'
 '-x+1/2,-y+1/2,-z'
 'x+1/2,y+1/2,-z+1/2'
 'x+1/2,-y+1/2,z+1/2'
 '-x+1/2,y+1/2,z'

loop_
_atom_site_label
_atom_site_type_symbol
_atom_site_fract_x
_atom_site_fract_y
_atom_site_fract_z
_atom_site_charge
O        O      0.178000000000     0.072600000000     0.414400000000     0     
O        O      0.198200000000     0.241400000000     0.375200000000     0     
O        O      0.000000000000     0.127100000000     0.350300000000     0     
O        O      0.249200000000     0.088700000000     0.324600000000     0     
O        O      0.679800000000     0.909800000000     0.335600000000     0     
O        O      0.693700000000     0.983700000000     0.250000000000     0     
O        O      0.500000000000     0.036500000000     0.308400000000     0     
O        O      0.000000000000     0.946600000000     0.444100000000     0     
O        O      0.750200000000     0.894100000000     0.425400000000     0     
O        O      0.800300000000     0.000000000000     0.500000000000     0     
O        O      0.500000000000     0.856700000000     0.399400000000     0     
T        Si     0.156400000000     0.132300000000     0.366200000000     0     
T        Si     0.656100000000     0.004600000000     0.304700000000     0     
T        Si     0.843500000000     0.978400000000     0.445900000000     0     
T        Si     0.343400000000     0.850600000000     0.383900000000     0     


