data_zeolite

_audit_creation_method RASPA-1.0
_audit_creation_date 2021-6-7
_audit_author_name ''

_cell_length_a    8.165
_cell_length_b    9.2
_cell_length_c    17.294
_cell_angle_alpha 90
_cell_angle_beta  90
_cell_angle_gamma 90
_cell_volume      31178.2

_symmetry_cell_setting          orthorhombic
_symmetry_space_group_name_Hall 'I 2b 2c'
_symmetry_space_group_name_H-M  'I 21 21 21'
_symmetry_Int_Tables_number     24

loop_
_symmetry_equiv_pos_as_xyz
 'x,y,z'
 '-x+1/2,-y,z+1/2'
 '-x,y+1/2,-z+1/2'
 'x+1/2,-y+1/2,-z'
 'x+1/2,y+1/2,z+1/2'
 '-x,-y+1/2,z'
 '-x+1/2,y,-z'
 'x,-y,-z+1/2'

loop_
_atom_site_label
_atom_site_type_symbol
_atom_site_fract_x
_atom_site_fract_y
_atom_site_fract_z
_atom_site_charge
O        O      0.750000000000     0.191400000000     0.000000000000     0     
O        O      0.546800000000     0.983400000000     0.039300000000     0     
O        O      0.747900000000     0.092300000000     0.141900000000     0     
O        O      0.500000000000     0.250000000000     0.091600000000     0     
O        O      0.047800000000     0.009900000000     0.105000000000     0     
O        O      0.250000000000     0.905500000000     0.000000000000     0     
O        O      0.000000000000     0.750000000000     0.047000000000     0     
O        O      0.000000000000     0.750000000000     0.316000000000     0     
O        O      0.949800000000     0.000000000000     0.250000000000     0     
T        Si     0.634800000000     0.130300000000     0.068300000000     0     
T        Si     0.062600000000     0.911900000000     0.028100000000     0     
T        Si     0.936000000000     0.913000000000     0.330300000000     0     


