data_zeolite

_audit_creation_method RASPA-1.0
_audit_creation_date 2021-6-7
_audit_author_name ''

_cell_length_a    18.87
_cell_length_b    14.401
_cell_length_c    7.514
_cell_angle_alpha 90
_cell_angle_beta  90
_cell_angle_gamma 90
_cell_volume      32670.5

_symmetry_cell_setting          orthorhombic
_symmetry_space_group_name_Hall '-C 2 2'
_symmetry_space_group_name_H-M  'C m m m'
_symmetry_Int_Tables_number     65

loop_
_symmetry_equiv_pos_as_xyz
 'x,y,z'
 '-x,-y,z'
 '-x,y,-z'
 'x,-y,-z'
 '-x,-y,-z'
 'x,y,-z'
 'x,-y,z'
 '-x,y,z'
 'x+1/2,y+1/2,z'
 '-x+1/2,-y+1/2,z'
 '-x+1/2,y+1/2,-z'
 'x+1/2,-y+1/2,-z'
 '-x+1/2,-y+1/2,-z'
 'x+1/2,y+1/2,-z'
 'x+1/2,-y+1/2,z'
 '-x+1/2,y+1/2,z'

loop_
_atom_site_label
_atom_site_type_symbol
_atom_site_fract_x
_atom_site_fract_y
_atom_site_fract_z
_atom_site_charge
O        O      0.000000000000     0.214500000000     0.246400000000     0     
O        O      0.102900000000     0.091200000000     0.247400000000     0     
O        O      0.220100000000     0.000000000000     0.175100000000     0     
O        O      0.250000000000     0.250000000000     0.000000000000     0     
O        O      0.318600000000     0.091100000000     0.000000000000     0     
O        O      0.130200000000     0.266300000000     0.175100000000     0     
O        O      0.169900000000     0.000000000000     0.500000000000     0     
O        O      0.096200000000     0.217600000000     0.500000000000     0     
T        Si     0.082200000000     0.197100000000     0.292500000000     0     
T        Si     0.173000000000     0.297700000000     0.000000000000     0     
T        Si     0.148800000000     0.000000000000     0.292500000000     0     
T        Si     0.269200000000     0.000000000000     0.000000000000     0     


