data_zeolite

_audit_creation_method RASPA-1.0
_audit_creation_date 2021-6-6
_audit_author_name ''

_cell_length_a    13.8271
_cell_length_b    13.8271
_cell_length_c    8.58035
_cell_angle_alpha 90
_cell_angle_beta  90
_cell_angle_gamma 120
_cell_volume      38358.5

_symmetry_cell_setting          hexagonal
_symmetry_space_group_name_Hall '-P 6 2c'
_symmetry_space_group_name_H-M  'P 6/m c c'
_symmetry_Int_Tables_number     192

loop_
_symmetry_equiv_pos_as_xyz
 'x,y,z'
 '-y,x-y,z'
 '-x+y,-x,z'
 '-x,-y,z'
 'y,-x+y,z'
 'x-y,x,z'
 'y,x,-z+1/2'
 'x-y,-y,-z+1/2'
 '-x,-x+y,-z+1/2'
 '-y,-x,-z+1/2'
 '-x+y,y,-z+1/2'
 'x,x-y,-z+1/2'
 '-x,-y,-z'
 'y,-x+y,-z'
 'x-y,x,-z'
 'x,y,-z'
 '-y,x-y,-z'
 '-x+y,-x,-z'
 '-y,-x,z+1/2'
 '-x+y,y,z+1/2'
 'x,x-y,z+1/2'
 'y,x,z+1/2'
 'x-y,-y,z+1/2'
 '-x,-x+y,z+1/2'

loop_
_atom_site_label
_atom_site_type_symbol
_atom_site_fract_x
_atom_site_fract_y
_atom_site_fract_z
_atom_site_charge
T        Si     0.456500000000     0.333370000000     0.187350000000     0     
O        O      0.456520000000     0.333330000000     0.000000000000     0     
O        O      0.369280000000     0.369280000000     0.250000000000     0     
O        O      0.420040000000     0.210020000000     0.250000000000     0     
O        O      0.579830000000     0.420170000000     0.250000000000     0     


