data_zeolite

_audit_creation_method RASPA-1.0
_audit_creation_date 2021-6-6
_audit_author_name ''

_cell_length_a    15.501
_cell_length_b    16.902
_cell_length_c    7.273
_cell_angle_alpha 90
_cell_angle_beta  96.07
_cell_angle_gamma 90
_cell_volume      30317.2

_symmetry_cell_setting          monoclinic
_symmetry_space_group_name_Hall '-C 2y'
_symmetry_space_group_name_H-M  'C 1 2/m 1'
_symmetry_Int_Tables_number     12

loop_
_symmetry_equiv_pos_as_xyz
 'x,y,z'
 '-x,y,-z'
 '-x,-y,-z'
 'x,-y,z'
 'x+1/2,y+1/2,z'
 '-x+1/2,y+1/2,-z'
 '-x+1/2,-y+1/2,-z'
 'x+1/2,-y+1/2,z'

loop_
_atom_site_label
_atom_site_type_symbol
_atom_site_fract_x
_atom_site_fract_y
_atom_site_fract_z
_atom_site_charge
O        O      0.044900000000     0.741100000000     0.357000000000     0     
O        O      0.572700000000     0.351500000000     0.611000000000     0     
O        O      0.281700000000     0.605100000000     0.191700000000     0     
O        O      0.283800000000     0.632600000000     0.548100000000     0     
O        O      0.301300000000     0.750300000000     0.317900000000     0     
O        O      0.654500000000     0.298900000000     0.140800000000     0     
O        O      0.117600000000     0.647200000000     0.128600000000     0     
O        O      0.000000000000     0.751600000000     0.000000000000     0     
O        O      0.206400000000     0.611800000000     0.850800000000     0     
O        O      0.163400000000     0.500000000000     0.075300000000     0     
T        Si     0.807700000000     0.408900000000     0.938300000000     0     
T        Si     0.079100000000     0.734400000000     0.156100000000     0     
T        Si     0.323300000000     0.658700000000     0.361200000000     0     
T        Si     0.258500000000     0.673500000000     0.735100000000     0     
T        Si     0.000000000000     0.796400000000     0.500000000000     0     


