data_zeolite

_audit_creation_method RASPA-1.0
_audit_creation_date 2021-6-7
_audit_author_name ''

_cell_length_a    11.454
_cell_length_b    21.695
_cell_length_c    7.227
_cell_angle_alpha 90
_cell_angle_beta  93.154
_cell_angle_gamma 90
_cell_volume      43035.6

_symmetry_cell_setting          monoclinic
_symmetry_space_group_name_Hall '-P 2yb'
_symmetry_space_group_name_H-M  'P 1 21/m 1'
_symmetry_Int_Tables_number     11

loop_
_symmetry_equiv_pos_as_xyz
 'x,y,z'
 '-x,y+1/2,-z'
 '-x,-y,-z'
 'x,-y+1/2,z'

loop_
_atom_site_label
_atom_site_type_symbol
_atom_site_fract_x
_atom_site_fract_y
_atom_site_fract_z
_atom_site_charge
O        O      0.225000000000     0.924800000000     0.009700000000     0     
O        O      0.320300000000     0.975800000000     0.725000000000     0     
O        O      0.358900000000     0.021800000000     0.061400000000     0     
O        O      0.152300000000     0.033400000000     0.890200000000     0     
O        O      0.028600000000     0.607900000000     0.154400000000     0     
O        O      0.224100000000     0.667300000000     0.245100000000     0     
O        O      0.122600000000     0.679000000000     0.910100000000     0     
O        O      0.273500000000     0.750000000000     0.503100000000     0     
O        O      0.326600000000     0.633400000000     0.565000000000     0     
O        O      0.107100000000     0.668800000000     0.547300000000     0     
O        O      0.385700000000     0.534400000000     0.383400000000     0     
O        O      0.522100000000     0.575100000000     0.660800000000     0     
O        O      0.934100000000     0.630900000000     0.742300000000     0     
O        O      0.978500000000     0.750000000000     0.712800000000     0     
O        O      0.947500000000     0.989900000000     0.772200000000     0     
O        O      0.067700000000     0.061300000000     0.555900000000     0     
O        O      0.249500000000     0.062700000000     0.348200000000     0     
T        Si     0.264300000000     0.989000000000     0.920500000000     0     
T        Si     0.150200000000     0.632400000000     0.080400000000     0     
T        Si     0.233300000000     0.679800000000     0.465000000000     0     
T        Si     0.388200000000     0.566900000000     0.583900000000     0     
T        Si     0.035000000000     0.682000000000     0.728200000000     0     
T        Si     0.034700000000     0.048000000000     0.765600000000     0     
T        Si     0.109200000000     0.066300000000     0.347300000000     0     
T        Si     0.367900000000     0.031500000000     0.282800000000     0     


