data_zeolite

_audit_creation_method RASPA-1.0
_audit_creation_date 2022-1-5
_audit_author_name ''

_cell_length_a    20.1528
_cell_length_b    20.1528
_cell_length_c    109.756
_cell_angle_alpha 90
_cell_angle_beta  90
_cell_angle_gamma 90
_cell_volume      178304

_symmetry_cell_setting          tetragonal
_symmetry_space_group_name_Hall 'P -4 -2'
_symmetry_space_group_name_H-M  'P -4 m 2'
_symmetry_Int_Tables_number     115

loop_
_symmetry_equiv_pos_as_xyz
 'x,y,z'
 '-x,-y,z'
 'y,-x,-z'
 '-y,x,-z'
 'x,-y,z'
 '-x,y,z'
 'y,x,-z'
 '-y,-x,-z'

loop_
_atom_site_label
_atom_site_type_symbol
_atom_site_fract_x
_atom_site_fract_y
_atom_site_fract_z
_atom_site_charge
O        O      0.293900000000     0.102900000000     0.260400000000     0     
O        O      0.191900000000     0.078200000000     0.274800000000     0     
O        O      0.217400000000     0.000000000000     0.256200000000     0     
O        O      0.171900000000     0.119700000000     0.252200000000     0     
O        O      0.309900000000     0.079700000000     0.317200000000     0     
O        O      0.320300000000     0.122700000000     0.339800000000     0     
O        O      0.283700000000     0.000000000000     0.335500000000     0     
O        O      0.202400000000     0.098300000000     0.330400000000     0     
O        O      0.286600000000     0.246600000000     0.336700000000     0     
O        O      0.319800000000     0.372200000000     0.338700000000     0     
O        O      0.305300000000     0.319100000000     0.317100000000     0     
O        O      0.200100000000     0.339200000000     0.330900000000     0     
O        O      0.085600000000     0.125800000000     0.339700000000     0     
O        O      0.000000000000     0.214000000000     0.347800000000     0     
O        O      0.120800000000     0.208800000000     0.357000000000     0     
O        O      0.103000000000     0.253300000000     0.334900000000     0     
O        O      0.415300000000     0.122400000000     0.252500000000     0     
O        O      0.500000000000     0.202300000000     0.241700000000     0     
O        O      0.374800000000     0.198900000000     0.234500000000     0     
O        O      0.405900000000     0.251700000000     0.255600000000     0     
O        O      0.198200000000     0.245900000000     0.253800000000     0     
O        O      0.245600000000     0.177100000000     0.235400000000     0     
O        O      0.116700000000     0.202200000000     0.236700000000     0     
O        O      0.181200000000     0.374400000000     0.252900000000     0     
O        O      0.299000000000     0.325900000000     0.258500000000     0     
O        O      0.199400000000     0.316300000000     0.274000000000     0     
O        O      0.102900000000     0.500000000000     0.346700000000     0     
O        O      0.119100000000     0.388400000000     0.359200000000     0     
O        O      0.000000000000     0.428400000000     0.353200000000     0     
O        O      0.081000000000     0.382800000000     0.336400000000     0     
O        O      0.500000000000     0.390300000000     0.363900000000     0     
O        O      0.415700000000     0.420200000000     0.381300000000     0     
O        O      0.376900000000     0.421200000000     0.358400000000     0     
O        O      0.403100000000     0.307800000000     0.369200000000     0     
O        O      0.191400000000     0.406400000000     0.378600000000     0     
O        O      0.246500000000     0.413700000000     0.357000000000     0     
O        O      0.206700000000     0.297600000000     0.365400000000     0     
O        O      0.381100000000     0.500000000000     0.399000000000     0     
O        O      0.409400000000     0.373800000000     0.403600000000     0     
O        O      0.299800000000     0.405100000000     0.392000000000     0     
O        O      0.311500000000     0.500000000000     0.343800000000     0     
O        O      0.000000000000     0.375800000000     0.228200000000     0     
O        O      0.075300000000     0.412300000000     0.210000000000     0     
O        O      0.096700000000     0.297900000000     0.221000000000     0     
O        O      0.124000000000     0.410500000000     0.232300000000     0     
O        O      0.102000000000     0.327600000000     0.315200000000     0     
O        O      0.000000000000     0.110700000000     0.302000000000     0     
O        O      0.095600000000     0.080700000000     0.317300000000     0     
O        O      0.123300000000     0.108400000000     0.294300000000     0     
O        O      0.083600000000     0.203300000000     0.309100000000     0     
O        O      0.381500000000     0.111300000000     0.298000000000     0     
O        O      0.299600000000     0.198900000000     0.307700000000     0     
O        O      0.252700000000     0.095500000000     0.295800000000     0     
O        O      0.500000000000     0.101800000000     0.288300000000     0     
O        O      0.421400000000     0.200700000000     0.282100000000     0     
O        O      0.394700000000     0.079100000000     0.274800000000     0     
O        O      0.210800000000     0.500000000000     0.395100000000     0     
O        O      0.184200000000     0.377100000000     0.401800000000     0     
O        O      0.397900000000     0.500000000000     0.244700000000     0     
O        O      0.415300000000     0.382400000000     0.255000000000     0     
O        O      0.380400000000     0.389800000000     0.232000000000     0     
O        O      0.500000000000     0.426100000000     0.238600000000     0     
O        O      0.201700000000     0.197800000000     0.284100000000     0     
O        O      0.176300000000     0.500000000000     0.246700000000     0     
O        O      0.254000000000     0.418900000000     0.234600000000     0     
O        O      0.378300000000     0.201900000000     0.476900000000     0     
O        O      0.294500000000     0.250100000000     0.460700000000     0     
O        O      0.249000000000     0.184200000000     0.479600000000     0     
O        O      0.314600000000     0.121800000000     0.462300000000     0     
O        O      0.208600000000     0.250300000000     0.397900000000     0     
O        O      0.249700000000     0.308200000000     0.418000000000     0     
O        O      0.121900000000     0.285800000000     0.414600000000     0     
O        O      0.376200000000     0.214800000000     0.353200000000     0     
O        O      0.249600000000     0.184100000000     0.356500000000     0     
O        O      0.376900000000     0.276900000000     0.418600000000     0     
O        O      0.406000000000     0.249800000000     0.395800000000     0     
O        O      0.500000000000     0.288200000000     0.410900000000     0     
O        O      0.381700000000     0.287500000000     0.298500000000     0     
O        O      0.390900000000     0.322000000000     0.275600000000     0     
O        O      0.500000000000     0.299800000000     0.288200000000     0     
O        O      0.293900000000     0.500000000000     0.465100000000     0     
O        O      0.377100000000     0.427800000000     0.477700000000     0     
O        O      0.320500000000     0.377200000000     0.458300000000     0     
O        O      0.249100000000     0.399400000000     0.477900000000     0     
O        O      0.119400000000     0.204700000000     0.479300000000     0     
O        O      0.104600000000     0.251700000000     0.457100000000     0     
O        O      0.000000000000     0.214200000000     0.469700000000     0     
O        O      0.084000000000     0.124600000000     0.461500000000     0     
O        O      0.303300000000     0.198100000000     0.214400000000     0     
O        O      0.290100000000     0.295900000000     0.230000000000     0     
O        O      0.000000000000     0.213500000000     0.226200000000     0     
O        O      0.104100000000     0.174800000000     0.213400000000     0     
O        O      0.381800000000     0.311900000000     0.175300000000     0     
O        O      0.391000000000     0.281500000000     0.152100000000     0     
O        O      0.500000000000     0.297400000000     0.165100000000     0     
O        O      0.423200000000     0.193900000000     0.168900000000     0     
O        O      0.120500000000     0.189000000000     0.113900000000     0     
O        O      0.102900000000     0.302200000000     0.102300000000     0     
O        O      0.000000000000     0.229100000000     0.108500000000     0     
O        O      0.080700000000     0.187600000000     0.091300000000     0     
O        O      0.123000000000     0.282500000000     0.171300000000     0     
O        O      0.000000000000     0.291600000000     0.179000000000     0     
O        O      0.093000000000     0.248100000000     0.193800000000     0     
O        O      0.090700000000     0.374200000000     0.187300000000     0     
O        O      0.122200000000     0.290400000000     0.292700000000     0     
O        O      0.252100000000     0.300800000000     0.295600000000     0     
O        O      0.199200000000     0.410800000000     0.499900000000     0     
O        O      0.199500000000     0.294500000000     0.488800000000     0     
O        O      0.120100000000     0.390400000000     0.481400000000     0     
O        O      0.101000000000     0.324500000000     0.437200000000     0     
O        O      0.204500000000     0.331000000000     0.451600000000     0     
O        O      0.089600000000     0.382200000000     0.458300000000     0     
O        O      0.313400000000     0.255500000000     0.193000000000     0     
O        O      0.251500000000     0.303200000000     0.173800000000     0     
O        O      0.306900000000     0.385100000000     0.189400000000     0     
O        O      0.000000000000     0.291300000000     0.423200000000     0     
O        O      0.083000000000     0.200000000000     0.431200000000     0     
O        O      0.195200000000     0.317400000000     0.152500000000     0     
O        O      0.208000000000     0.197800000000     0.162000000000     0     
O        O      0.375300000000     0.173200000000     0.110200000000     0     
O        O      0.328500000000     0.290100000000     0.104800000000     0     
O        O      0.289800000000     0.185200000000     0.092200000000     0     
O        O      0.250800000000     0.199900000000     0.115000000000     0     
O        O      0.000000000000     0.421700000000     0.474200000000     0     
O        O      0.100300000000     0.500000000000     0.468800000000     0     
O        O      0.000000000000     0.295000000000     0.301400000000     0     
O        O      0.500000000000     0.387900000000     0.481700000000     0     
O        O      0.399500000000     0.313200000000     0.488600000000     0     
O        O      0.425100000000     0.425100000000     0.500000000000     0     
O        O      0.312000000000     0.084600000000     0.439400000000     0     
O        O      0.287000000000     0.192300000000     0.426600000000     0     
O        O      0.378900000000     0.108100000000     0.419300000000     0     
O        O      0.252600000000     0.075100000000     0.418100000000     0     
O        O      0.402700000000     0.249700000000     0.129000000000     0     
O        O      0.428500000000     0.121100000000     0.129900000000     0     
O        O      0.500000000000     0.199000000000     0.116100000000     0     
O        O      0.312300000000     0.301300000000     0.438900000000     0     
O        O      0.185000000000     0.128000000000     0.131200000000     0     
O        O      0.176000000000     0.258100000000     0.131500000000     0     
O        O      0.377900000000     0.306400000000     0.054900000000     0     
O        O      0.408700000000     0.316800000000     0.031900000000     0     
O        O      0.500000000000     0.280900000000     0.047800000000     0     
O        O      0.402500000000     0.198800000000     0.042200000000     0     
O        O      0.124400000000     0.207100000000     0.994700000000     0     
O        O      0.252400000000     0.210400000000     0.989400000000     0     
O        O      0.202200000000     0.119200000000     0.397500000000     0     
O        O      0.125500000000     0.105900000000     0.416600000000     0     
O        O      0.171500000000     0.000000000000     0.405500000000     0     
O        O      0.117800000000     0.290000000000     0.049400000000     0     
O        O      0.196000000000     0.200700000000     0.039100000000     0     
O        O      0.190200000000     0.322000000000     0.030500000000     0     
O        O      0.248100000000     0.298800000000     0.051600000000     0     
O        O      0.419700000000     0.500000000000     0.005900000000     0     
O        O      0.418400000000     0.371100000000     0.010400000000     0     
O        O      0.297700000000     0.380800000000     0.067800000000     0     
O        O      0.303400000000     0.252100000000     0.071800000000     0     
O        O      0.186600000000     0.187200000000     0.377400000000     0     
O        O      0.071800000000     0.248900000000     0.070400000000     0     
O        O      0.108800000000     0.373900000000     0.067800000000     0     
O        O      0.000000000000     0.329500000000     0.057200000000     0     
O        O      0.415100000000     0.182700000000     0.375400000000     0     
O        O      0.500000000000     0.235800000000     0.360000000000     0     
O        O      0.500000000000     0.233400000000     0.483700000000     0     
O        O      0.382400000000     0.190000000000     0.990700000000     0     
O        O      0.388500000000     0.244700000000     0.012300000000     0     
O        O      0.426600000000     0.122000000000     0.009500000000     0     
O        O      0.500000000000     0.217500000000     0.000400000000     0     
O        O      0.301200000000     0.336400000000     0.018600000000     0     
O        O      0.092600000000     0.119300000000     0.071100000000     0     
O        O      0.099100000000     0.000000000000     0.061400000000     0     
O        O      0.119900000000     0.105900000000     0.047900000000     0     
O        O      0.000000000000     0.079800000000     0.055800000000     0     
O        O      0.188200000000     0.085900000000     0.027800000000     0     
O        O      0.250300000000     0.093700000000     0.048800000000     0     
O        O      0.410300000000     0.118400000000     0.396200000000     0     
O        O      0.304200000000     0.180300000000     0.387800000000     0     
O        O      0.410400000000     0.500000000000     0.128000000000     0     
O        O      0.376700000000     0.404200000000     0.112900000000     0     
O        O      0.404900000000     0.375400000000     0.135500000000     0     
O        O      0.500000000000     0.413500000000     0.120700000000     0     
O        O      0.121700000000     0.000000000000     0.457600000000     0     
O        O      0.091300000000     0.077000000000     0.439200000000     0     
O        O      0.200200000000     0.099700000000     0.451600000000     0     
O        O      0.181400000000     0.181400000000     0.500000000000     0     
O        O      0.280100000000     0.000000000000     0.456600000000     0     
O        O      0.232800000000     0.000000000000     0.011700000000     0     
O        O      0.309200000000     0.098400000000     0.019300000000     0     
O        O      0.500000000000     0.120900000000     0.049300000000     0     
O        O      0.376300000000     0.091300000000     0.055000000000     0     
O        O      0.417700000000     0.081100000000     0.032300000000     0     
O        O      0.187400000000     0.202400000000     0.077700000000     0     
O        O      0.099000000000     0.117700000000     0.192000000000     0     
O        O      0.000000000000     0.092300000000     0.177000000000     0     
O        O      0.123200000000     0.104300000000     0.168800000000     0     
O        O      0.089200000000     0.000000000000     0.181800000000     0     
O        O      0.390200000000     0.000000000000     0.014300000000     0     
O        O      0.324000000000     0.396600000000     0.091100000000     0     
O        O      0.247200000000     0.387300000000     0.110300000000     0     
O        O      0.000000000000     0.376400000000     0.108100000000     0     
O        O      0.121300000000     0.418600000000     0.112800000000     0     
O        O      0.078100000000     0.411400000000     0.090100000000     0     
O        O      0.295900000000     0.500000000000     0.077400000000     0     
O        O      0.202100000000     0.413300000000     0.083000000000     0     
O        O      0.294600000000     0.000000000000     0.063300000000     0     
O        O      0.285200000000     0.122700000000     0.071200000000     0     
O        O      0.500000000000     0.089000000000     0.166600000000     0     
O        O      0.379000000000     0.076800000000     0.175800000000     0     
O        O      0.394500000000     0.102900000000     0.152600000000     0     
O        O      0.216300000000     0.078400000000     0.152700000000     0     
O        O      0.249000000000     0.097600000000     0.175400000000     0     
O        O      0.214300000000     0.500000000000     0.120800000000     0     
O        O      0.193100000000     0.386900000000     0.132100000000     0     
O        O      0.117200000000     0.500000000000     0.074100000000     0     
O        O      0.301800000000     0.388200000000     0.213100000000     0     
O        O      0.293700000000     0.307200000000     0.136800000000     0     
O        O      0.209600000000     0.000000000000     0.133800000000     0     
O        O      0.306700000000     0.086400000000     0.135300000000     0     
O        O      0.404700000000     0.000000000000     0.137900000000     0     
O        O      0.205400000000     0.187000000000     0.198500000000     0     
O        O      0.106200000000     0.500000000000     0.193300000000     0     
O        O      0.194300000000     0.411500000000     0.200300000000     0     
O        O      0.291600000000     0.500000000000     0.200600000000     0     
O        O      0.318300000000     0.125100000000     0.194900000000     0     
O        O      0.119800000000     0.000000000000     0.335400000000     0     
O        O      0.372000000000     0.000000000000     0.256300000000     0     
O        O      0.299500000000     0.000000000000     0.188400000000     0     
O        O      0.500000000000     0.079900000000     0.412100000000     0     
O        O      0.401400000000     0.000000000000     0.406400000000     0     
O        O      0.000000000000     0.109200000000     0.423200000000     0     
T        Si     0.218600000000     0.075700000000     0.261000000000     0     
T        Si     0.279200000000     0.075500000000     0.330600000000     0     
T        Si     0.277700000000     0.319400000000     0.330800000000     0     
T        Si     0.077300000000     0.200400000000     0.344800000000     0     
T        Si     0.423800000000     0.193900000000     0.246000000000     0     
T        Si     0.183000000000     0.186600000000     0.244400000000     0     
T        Si     0.220000000000     0.315500000000     0.259800000000     0     
T        Si     0.076400000000     0.425200000000     0.348800000000     0     
T        Si     0.423700000000     0.385000000000     0.368300000000     0     
T        Si     0.191300000000     0.376100000000     0.365100000000     0     
T        Si     0.376600000000     0.424700000000     0.394100000000     0     
T        Si     0.313700000000     0.426000000000     0.349400000000     0     
T        Si     0.074600000000     0.374200000000     0.222900000000     0     
T        Si     0.121700000000     0.325200000000     0.329400000000     0     
T        Si     0.076000000000     0.125700000000     0.305700000000     0     
T        Si     0.310900000000     0.121400000000     0.304700000000     0     
T        Si     0.424000000000     0.123200000000     0.285800000000     0     
T        Si     0.221700000000     0.422600000000     0.391800000000     0     
T        Si     0.423100000000     0.424700000000     0.242700000000     0     
T        Si     0.192400000000     0.120100000000     0.287200000000     0     
T        Si     0.183900000000     0.425200000000     0.241600000000     0     
T        Si     0.308900000000     0.189900000000     0.470000000000     0     
T        Si     0.191000000000     0.305000000000     0.408100000000     0     
T        Si     0.308300000000     0.192400000000     0.346700000000     0     
T        Si     0.422900000000     0.297200000000     0.407200000000     0     
T        Si     0.423800000000     0.277700000000     0.286200000000     0     
T        Si     0.310000000000     0.425700000000     0.469700000000     0     
T        Si     0.077200000000     0.198900000000     0.466900000000     0     
T        Si     0.303800000000     0.217300000000     0.228600000000     0     
T        Si     0.078900000000     0.221900000000     0.224300000000     0     
T        Si     0.424100000000     0.271500000000     0.165300000000     0     
T        Si     0.076100000000     0.227200000000     0.104000000000     0     
T        Si     0.076900000000     0.299000000000     0.182900000000     0     
T        Si     0.193700000000     0.276300000000     0.286600000000     0     
T        Si     0.192200000000     0.373600000000     0.487000000000     0     
T        Si     0.124900000000     0.322000000000     0.451100000000     0     
T        Si     0.313400000000     0.313500000000     0.182900000000     0     
T        Si     0.076500000000     0.275500000000     0.426500000000     0     
T        Si     0.194600000000     0.275200000000     0.164900000000     0     
T        Si     0.310300000000     0.212200000000     0.105400000000     0     
T        Si     0.077600000000     0.423800000000     0.470600000000     0     
T        Si     0.076600000000     0.279100000000     0.304500000000     0     
T        Si     0.425200000000     0.388600000000     0.487000000000     0     
T        Si     0.307700000000     0.115000000000     0.425800000000     0     
T        Si     0.426100000000     0.185900000000     0.121300000000     0     
T        Si     0.306700000000     0.269700000000     0.425500000000     0     
T        Si     0.183800000000     0.193900000000     0.122900000000     0     
T        Si     0.422600000000     0.275600000000     0.044200000000     0     
T        Si     0.198700000000     0.198700000000     0.000000000000     0     
T        Si     0.188200000000     0.075400000000     0.409400000000     0     
T        Si     0.188100000000     0.277900000000     0.042800000000     0     
T        Si     0.426800000000     0.426800000000     0.000000000000     0     
T        Si     0.306300000000     0.309100000000     0.061500000000     0     
T        Si     0.190500000000     0.219500000000     0.364000000000     0     
T        Si     0.075000000000     0.311000000000     0.061200000000     0     
T        Si     0.423600000000     0.235000000000     0.364400000000     0     
T        Si     0.422500000000     0.236800000000     0.487300000000     0     
T        Si     0.424700000000     0.194100000000     0.003100000000     0     
T        Si     0.378900000000     0.316900000000     0.018300000000     0     
T        Si     0.222600000000     0.323100000000     0.017200000000     0     
T        Si     0.077900000000     0.076300000000     0.059100000000     0     
T        Si     0.188700000000     0.121600000000     0.040900000000     0     
T        Si     0.384000000000     0.182800000000     0.388900000000     0     
T        Si     0.423000000000     0.423400000000     0.124300000000     0     
T        Si     0.124000000000     0.075300000000     0.452600000000     0     
T        Si     0.309900000000     0.276600000000     0.304700000000     0     
T        Si     0.187000000000     0.216100000000     0.486800000000     0     
T        Si     0.276800000000     0.076600000000     0.452400000000     0     
T        Si     0.234200000000     0.076700000000     0.015900000000     0     
T        Si     0.423900000000     0.122900000000     0.044700000000     0     
T        Si     0.108400000000     0.189400000000     0.077600000000     0     
T        Si     0.282700000000     0.314400000000     0.452300000000     0     
T        Si     0.077300000000     0.078500000000     0.179900000000     0     
T        Si     0.386000000000     0.075900000000     0.018900000000     0     
T        Si     0.319300000000     0.369700000000     0.104900000000     0     
T        Si     0.075800000000     0.377400000000     0.103400000000     0     
T        Si     0.279800000000     0.422700000000     0.079900000000     0     
T        Si     0.301600000000     0.077100000000     0.059600000000     0     
T        Si     0.266500000000     0.190400000000     0.078200000000     0     
T        Si     0.225300000000     0.184500000000     0.390200000000     0     
T        Si     0.424400000000     0.115400000000     0.166000000000     0     
T        Si     0.198700000000     0.119700000000     0.164800000000     0     
T        Si     0.193700000000     0.423200000000     0.119000000000     0     
T        Si     0.126200000000     0.424300000000     0.078700000000     0     
T        Si     0.306300000000     0.373000000000     0.227400000000     0     
T        Si     0.373200000000     0.303500000000     0.138400000000     0     
T        Si     0.229300000000     0.073800000000     0.138300000000     0     
T        Si     0.383700000000     0.077100000000     0.139000000000     0     
T        Si     0.125700000000     0.181500000000     0.199400000000     0     
T        Si     0.214700000000     0.317600000000     0.138300000000     0     
T        Si     0.116500000000     0.424300000000     0.197700000000     0     
T        Si     0.273600000000     0.422000000000     0.200800000000     0     
T        Si     0.284800000000     0.192000000000     0.200200000000     0     
T        Si     0.125400000000     0.075900000000     0.330800000000     0     
T        Si     0.369400000000     0.076000000000     0.261000000000     0     
T        Si     0.311300000000     0.075000000000     0.183600000000     0     
T        Si     0.377500000000     0.320300000000     0.261100000000     0     
T        Si     0.422500000000     0.076500000000     0.408400000000     0     
T        Si     0.075300000000     0.122800000000     0.427600000000     0     


