data_zeolite

_audit_creation_method RASPA-1.0
_audit_creation_date 2021-6-6
_audit_author_name ''

_cell_length_a    12.7411
_cell_length_b    12.6989
_cell_length_c    20.9991
_cell_angle_alpha 90
_cell_angle_beta  96.29
_cell_angle_gamma 90
_cell_volume      60788.8

_symmetry_cell_setting          monoclinic
_symmetry_space_group_name_Hall '-P 2y'
_symmetry_space_group_name_H-M  'P 1 2/m 1'
_symmetry_Int_Tables_number     10

loop_
_symmetry_equiv_pos_as_xyz
 'x,y,z'
 '-x,y,-z'
 '-x,-y,-z'
 'x,-y,z'

loop_
_atom_site_label
_atom_site_type_symbol
_atom_site_fract_x
_atom_site_fract_y
_atom_site_fract_z
_atom_site_charge
T        Si     0.646700000000     0.120700000000     0.237100000000     0     
T        Si     0.795500000000     0.120700000000     0.365100000000     0     
T        Si     0.986600000000     0.121200000000     0.290300000000     0     
T        Si     0.838700000000     0.121100000000     0.162300000000     0     
T        Si     0.118300000000     0.378800000000     0.062100000000     0     
T        Si     0.269700000000     0.378900000000     0.187200000000     0     
T        Si     0.145900000000     0.305900000000     0.297600000000     0     
T        Si     0.286600000000     0.380100000000     0.417900000000     0     
T        Si     0.511800000000     0.379900000000     0.381200000000     0     
T        Si     0.733200000000     0.307900000000     0.443900000000     0     
T        Si     0.495300000000     0.308200000000     0.239800000000     0     
T        Si     0.895600000000     0.307100000000     0.078400000000     0     
T        Si     0.790000000000     0.500000000000     0.364600000000     0     
T        Si     0.991400000000     0.500000000000     0.284900000000     0     
T        Si     0.847400000000     0.500000000000     0.162000000000     0     
T        Si     0.645900000000     0.500000000000     0.241600000000     0     
O        O      0.021900000000     0.320000000000     0.090800000000     0     
O        O      0.087500000000     0.500000000000     0.047300000000     0     
O        O      0.222500000000     0.373800000000     0.112900000000     0     
O        O      0.280100000000     0.500000000000     0.209700000000     0     
O        O      0.384100000000     0.323700000000     0.196400000000     0     
O        O      0.191100000000     0.317500000000     0.229300000000     0     
O        O      0.091600000000     0.192100000000     0.302500000000     0     
O        O      0.059800000000     0.396400000000     0.305100000000     0     
O        O      0.241300000000     0.317300000000     0.354100000000     0     
O        O      0.247400000000     0.323600000000     0.479700000000     0     
O        O      0.245300000000     0.500000000000     0.413700000000     0     
O        O      0.413700000000     0.379400000000     0.423500000000     0     
O        O      0.478600000000     0.320300000000     0.314400000000     0     
O        O      0.544200000000     0.500000000000     0.368200000000     0     
O        O      0.609200000000     0.318700000000     0.420100000000     0     
O        O      0.774300000000     0.193300000000     0.425300000000     0     
O        O      0.797100000000     0.396600000000     0.409200000000     0     
O        O      0.681100000000     0.500000000000     0.317700000000     0     
O        O      0.887300000000     0.500000000000     0.321900000000     0     
O        O      0.956400000000     0.500000000000     0.208900000000     0     
O        O      0.840200000000     0.396500000000     0.117600000000     0     
O        O      0.750100000000     0.500000000000     0.204700000000     0     
O        O      0.577200000000     0.396600000000     0.221300000000     0     
O        O      0.542900000000     0.193800000000     0.226600000000     0     
O        O      0.614500000000     0.000000000000     0.221700000000     0     
O        O      0.732100000000     0.157900000000     0.190500000000     0     
O        O      0.696900000000     0.130200000000     0.310600000000     0     
O        O      0.809200000000     0.000000000000     0.387900000000     0     
O        O      0.901400000000     0.159400000000     0.336700000000     0     
O        O      0.937300000000     0.132400000000     0.216800000000     0     
O        O      0.827200000000     0.000000000000     0.139900000000     0     
O        O      0.860100000000     0.193100000000     0.101900000000     0     
O        O      0.858300000000     0.320900000000     0.003100000000     0     
O        O      0.016800000000     0.000000000000     0.305500000000     0     


