data_zeolite

_audit_creation_method RASPA-1.0
_audit_creation_date 2021-6-7
_audit_author_name ''

_cell_length_a    8.914
_cell_length_b    9.209
_cell_length_c    16.087
_cell_angle_alpha 90
_cell_angle_beta  90
_cell_angle_gamma 90
_cell_volume      23770.2

_symmetry_cell_setting          orthorhombic
_symmetry_space_group_name_Hall 'P 2c -2ac'
_symmetry_space_group_name_H-M  'P c a 21'
_symmetry_Int_Tables_number     29

loop_
_symmetry_equiv_pos_as_xyz
 'x,y,z'
 '-x,-y,z+1/2'
 'x+1/2,-y,z'
 '-x+1/2,y,z+1/2'

loop_
_atom_site_label
_atom_site_type_symbol
_atom_site_fract_x
_atom_site_fract_y
_atom_site_fract_z
_atom_site_charge
O        O      0.335200000000     0.855700000000     0.387500000000     0     
O        O      0.093100000000     0.745500000000     0.457200000000     0     
O        O      0.090200000000     0.813000000000     0.299500000000     0     
O        O      0.097600000000     0.019800000000     0.412700000000     0     
O        O      0.141400000000     0.362100000000     0.808400000000     0     
O        O      0.871100000000     0.466300000000     0.778400000000     0     
O        O      0.011800000000     0.315100000000     0.664100000000     0     
O        O      0.986000000000     0.762500000000     0.006800000000     0     
O        O      0.226000000000     0.640600000000     0.070000000000     0     
O        O      0.986100000000     0.484500000000     0.046400000000     0     
O        O      0.085500000000     0.283000000000     0.351100000000     0     
O        O      0.222500000000     0.493400000000     0.432000000000     0     
T        Si     0.154800000000     0.859300000000     0.389200000000     0     
T        Si     0.045300000000     0.643400000000     0.072200000000     0     
T        Si     0.199200000000     0.418100000000     0.342600000000     0     
T        Si     0.984100000000     0.332800000000     0.762400000000     0     
T        Si     0.150200000000     0.598500000000     0.501200000000     0     
T        Si     0.006900000000     0.170900000000     0.414400000000     0     


