data_zeolite

_audit_creation_method RASPA-1.0
_audit_creation_date 2021-6-8
_audit_author_name ''

_cell_length_a    34.838
_cell_length_b    34.838
_cell_length_c    34.838
_cell_angle_alpha 90
_cell_angle_beta  90
_cell_angle_gamma 90
_cell_volume      42282.4

_symmetry_cell_setting          cubic
_symmetry_space_group_name_Hall '-I 4 2 3'
_symmetry_space_group_name_H-M  'I m -3 m'
_symmetry_Int_Tables_number     229

loop_
_symmetry_equiv_pos_as_xyz
 'x,y,z'
 '-x,-y,z'
 '-x,y,-z'
 'x,-y,-z'
 'z,x,y'
 'z,-x,-y'
 '-z,-x,y'
 '-z,x,-y'
 'y,z,x'
 '-y,z,-x'
 'y,-z,-x'
 '-y,-z,x'
 'y,x,-z'
 '-y,-x,-z'
 'y,-x,z'
 '-y,x,z'
 'x,z,-y'
 '-x,z,y'
 '-x,-z,-y'
 'x,-z,y'
 'z,y,-x'
 'z,-y,x'
 '-z,y,x'
 '-z,-y,-x'
 '-x,-y,-z'
 'x,y,-z'
 'x,-y,z'
 '-x,y,z'
 '-z,-x,-y'
 '-z,x,y'
 'z,x,-y'
 'z,-x,y'
 '-y,-z,-x'
 'y,-z,x'
 '-y,z,x'
 'y,z,-x'
 '-y,-x,z'
 'y,x,z'
 '-y,x,-z'
 'y,-x,-z'
 '-x,-z,y'
 'x,-z,-y'
 'x,z,y'
 '-x,z,-y'
 '-z,-y,x'
 '-z,y,-x'
 'z,-y,-x'
 'z,y,x'
 'x+1/2,y+1/2,z+1/2'
 '-x+1/2,-y+1/2,z+1/2'
 '-x+1/2,y+1/2,-z+1/2'
 'x+1/2,-y+1/2,-z+1/2'
 'z+1/2,x+1/2,y+1/2'
 'z+1/2,-x+1/2,-y+1/2'
 '-z+1/2,-x+1/2,y+1/2'
 '-z+1/2,x+1/2,-y+1/2'
 'y+1/2,z+1/2,x+1/2'
 '-y+1/2,z+1/2,-x+1/2'
 'y+1/2,-z+1/2,-x+1/2'
 '-y+1/2,-z+1/2,x+1/2'
 'y+1/2,x+1/2,-z+1/2'
 '-y+1/2,-x+1/2,-z+1/2'
 'y+1/2,-x+1/2,z+1/2'
 '-y+1/2,x+1/2,z+1/2'
 'x+1/2,z+1/2,-y+1/2'
 '-x+1/2,z+1/2,y+1/2'
 '-x+1/2,-z+1/2,-y+1/2'
 'x+1/2,-z+1/2,y+1/2'
 'z+1/2,y+1/2,-x+1/2'
 'z+1/2,-y+1/2,x+1/2'
 '-z+1/2,y+1/2,x+1/2'
 '-z+1/2,-y+1/2,-x+1/2'
 '-x+1/2,-y+1/2,-z+1/2'
 'x+1/2,y+1/2,-z+1/2'
 'x+1/2,-y+1/2,z+1/2'
 '-x+1/2,y+1/2,z+1/2'
 '-z+1/2,-x+1/2,-y+1/2'
 '-z+1/2,x+1/2,y+1/2'
 'z+1/2,x+1/2,-y+1/2'
 'z+1/2,-x+1/2,y+1/2'
 '-y+1/2,-z+1/2,-x+1/2'
 'y+1/2,-z+1/2,x+1/2'
 '-y+1/2,z+1/2,x+1/2'
 'y+1/2,z+1/2,-x+1/2'
 '-y+1/2,-x+1/2,z+1/2'
 'y+1/2,x+1/2,z+1/2'
 '-y+1/2,x+1/2,-z+1/2'
 'y+1/2,-x+1/2,-z+1/2'
 '-x+1/2,-z+1/2,y+1/2'
 'x+1/2,-z+1/2,-y+1/2'
 'x+1/2,z+1/2,y+1/2'
 '-x+1/2,z+1/2,-y+1/2'
 '-z+1/2,-y+1/2,x+1/2'
 '-z+1/2,y+1/2,-x+1/2'
 'z+1/2,-y+1/2,-x+1/2'
 'z+1/2,y+1/2,x+1/2'

loop_
_atom_site_label
_atom_site_type_symbol
_atom_site_fract_x
_atom_site_fract_y
_atom_site_fract_z
_atom_site_charge
O        O      0.306400000000     0.238600000000     0.142700000000     0     
O        O      0.302400000000     0.214600000000     0.071300000000     0     
O        O      0.357400000000     0.261900000000     0.092000000000     0     
O        O      0.286300000000     0.286300000000     0.087800000000     0     
O        O      0.500000000000     0.120000000000     0.051200000000     0     
O        O      0.446400000000     0.070500000000     0.070500000000     0     
O        O      0.449700000000     0.096800000000     0.000000000000     0     
O        O      0.428000000000     0.142200000000     0.056200000000     0     
O        O      0.357000000000     0.167000000000     0.049900000000     0     
O        O      0.409200000000     0.188900000000     0.000000000000     0     
O        O      0.412000000000     0.214300000000     0.071100000000     0     
O        O      0.285700000000     0.142800000000     0.055800000000     0     
O        O      0.305200000000     0.189800000000     0.000000000000     0     
O        O      0.214200000000     0.118900000000     0.050900000000     0     
O        O      0.265100000000     0.096300000000     0.000000000000     0     
O        O      0.268900000000     0.070800000000     0.070800000000     0     
O        O      0.163200000000     0.096600000000     0.000000000000     0     
O        O      0.159500000000     0.070800000000     0.070800000000     0     
O        O      0.142900000000     0.142900000000     0.056000000000     0     
O        O      0.302200000000     0.214000000000     0.214000000000     0     
T        Si     0.313100000000     0.250300000000     0.098500000000     0     
T        Si     0.456100000000     0.107500000000     0.044500000000     0     
T        Si     0.401500000000     0.178100000000     0.044300000000     0     
T        Si     0.312600000000     0.178500000000     0.044200000000     0     
T        Si     0.258500000000     0.107200000000     0.044400000000     0     
T        Si     0.170000000000     0.107300000000     0.044400000000     0     
T        Si     0.312900000000     0.250000000000     0.187100000000     0     
T        Si     0.401600000000     0.250000000000     0.098400000000     0     


