data_zeolite

_audit_creation_method RASPA-1.0
_audit_creation_date 2021-6-7
_audit_author_name ''

_cell_length_a    17.191
_cell_length_b    17.191
_cell_length_c    41.03
_cell_angle_alpha 90
_cell_angle_beta  90
_cell_angle_gamma 120
_cell_volume      42004.4

_symmetry_cell_setting          trigonal
_symmetry_space_group_name_Hall '-R 3 2"'
_symmetry_space_group_name_H-M  'R -3 m'
_symmetry_Int_Tables_number     166

loop_
_symmetry_equiv_pos_as_xyz
 'x,y,z'
 '-y,x-y,z'
 '-x+y,-x,z'
 'y,x,-z'
 'x-y,-y,-z'
 '-x,-x+y,-z'
 '-x,-y,-z'
 'y,-x+y,-z'
 'x-y,x,-z'
 '-y,-x,z'
 '-x+y,y,z'
 'x,x-y,z'
 'x+2/3,y+1/3,z+1/3'
 '-y+2/3,x-y+1/3,z+1/3'
 '-x+y+2/3,-x+1/3,z+1/3'
 'y+2/3,x+1/3,-z+1/3'
 'x-y+2/3,-y+1/3,-z+1/3'
 '-x+2/3,-x+y+1/3,-z+1/3'
 '-x+2/3,-y+1/3,-z+1/3'
 'y+2/3,-x+y+1/3,-z+1/3'
 'x-y+2/3,x+1/3,-z+1/3'
 '-y+2/3,-x+1/3,z+1/3'
 '-x+y+2/3,y+1/3,z+1/3'
 'x+2/3,x-y+1/3,z+1/3'
 'x+1/3,y+2/3,z+2/3'
 '-y+1/3,x-y+2/3,z+2/3'
 '-x+y+1/3,-x+2/3,z+2/3'
 'y+1/3,x+2/3,-z+2/3'
 'x-y+1/3,-y+2/3,-z+2/3'
 '-x+1/3,-x+y+2/3,-z+2/3'
 '-x+1/3,-y+2/3,-z+2/3'
 'y+1/3,-x+y+2/3,-z+2/3'
 'x-y+1/3,x+2/3,-z+2/3'
 '-y+1/3,-x+2/3,z+2/3'
 '-x+y+1/3,y+2/3,z+2/3'
 'x+1/3,x-y+2/3,z+2/3'

loop_
_atom_site_label
_atom_site_type_symbol
_atom_site_fract_x
_atom_site_fract_y
_atom_site_fract_z
_atom_site_charge
O        O      0.138200000000     0.569100000000     0.119900000000     0     
O        O      0.260000000000     0.519900000000     0.125400000000     0     
O        O      0.096800000000     0.403700000000     0.105700000000     0     
O        O      0.125200000000     0.458500000000     0.166700000000     0     
O        O      0.862800000000     0.431400000000     0.000400000000     0     
O        O      0.883000000000     0.551100000000     0.956300000000     0     
O        O      0.737500000000     0.475000000000     0.992500000000     0     
O        O      0.892300000000     0.590500000000     0.018600000000     0     
O        O      0.997100000000     0.285100000000     0.061300000000     0     
O        O      0.000000000000     0.242900000000     0.000000000000     0     
O        O      0.859100000000     0.140900000000     0.036400000000     0     
O        O      0.661400000000     0.830700000000     0.065500000000     0     
T        Si     0.155000000000     0.487800000000     0.129400000000     0     
T        Si     0.936800000000     0.242400000000     0.029100000000     0     
T        Si     0.630900000000     0.904900000000     0.069100000000     0     
T        Si     0.844100000000     0.512000000000     0.991900000000     0     


