data_zeolite

_audit_creation_method RASPA-1.0
_audit_creation_date 2021-6-6
_audit_author_name ''

_cell_length_a    21.555
_cell_length_b    8.761
_cell_length_c    9.304
_cell_angle_alpha 90
_cell_angle_beta  91.55
_cell_angle_gamma 90
_cell_volume      31614.4

_symmetry_cell_setting          monoclinic
_symmetry_space_group_name_Hall '-C 2yc'
_symmetry_space_group_name_H-M  'C 1 2/c 1'
_symmetry_Int_Tables_number     15

loop_
_symmetry_equiv_pos_as_xyz
 'x,y,z'
 '-x,y,-z+1/2'
 '-x,-y,-z'
 'x,-y,z+1/2'
 'x+1/2,y+1/2,z'
 '-x+1/2,y+1/2,-z+1/2'
 '-x+1/2,-y+1/2,-z'
 'x+1/2,-y+1/2,z+1/2'

loop_
_atom_site_label
_atom_site_type_symbol
_atom_site_fract_x
_atom_site_fract_y
_atom_site_fract_z
_atom_site_charge
O        O      0.069500000000     0.018100000000     0.216200000000     0     
O        O      0.072500000000     0.171900000000     0.462600000000     0     
O        O      0.122200000000     0.288300000000     0.229500000000     0     
O        O      0.172200000000     0.036300000000     0.025000000000     0     
O        O      0.208100000000     0.466900000000     0.409600000000     0     
O        O      0.234500000000     0.155000000000     0.360500000000     0     
O        O      0.234000000000     0.359900000000     0.122100000000     0     
O        O      0.000000000000     0.263200000000     0.250000000000     0     
O        O      0.352300000000     0.267300000000     0.291800000000     0     
T        Si     0.067300000000     0.183200000000     0.289600000000     0     
T        Si     0.239800000000     0.007700000000     0.462100000000     0     
T        Si     0.199900000000     0.316200000000     0.285800000000     0     
T        Si     0.116100000000     0.084400000000     0.600600000000     0     


