data_zeolite

_audit_creation_method RASPA-1.0
_audit_creation_date 2022-1-5
_audit_author_name ''

_cell_length_a    29.886
_cell_length_b    8.39
_cell_length_c    24.731
_cell_angle_alpha 90
_cell_angle_beta  105.048
_cell_angle_gamma 90
_cell_volume      47907.9

_symmetry_cell_setting          monoclinic
_symmetry_space_group_name_Hall '-P 2y'
_symmetry_space_group_name_H-M  'P 1 2/m 1'
_symmetry_Int_Tables_number     10

loop_
_symmetry_equiv_pos_as_xyz
 'x,y,z'
 '-x,y,-z'
 '-x,-y,-z'
 'x,-y,z'

loop_
_atom_site_label
_atom_site_type_symbol
_atom_site_fract_x
_atom_site_fract_y
_atom_site_fract_z
_atom_site_charge
O        O      0.127200000000     0.000000000000     0.199500000000     0     
O        O      0.007200000000     0.269300000000     0.176100000000     0     
O        O      0.053400000000     0.500000000000     0.238400000000     0     
O        O      0.206100000000     0.000000000000     0.023900000000     0     
O        O      0.758800000000     0.230500000000     0.163200000000     0     
O        O      0.829600000000     0.206600000000     0.251500000000     0     
O        O      0.842400000000     0.296600000000     0.154500000000     0     
O        O      0.819600000000     0.000000000000     0.169100000000     0     
O        O      0.944600000000     0.204700000000     0.230300000000     0     
O        O      0.961000000000     0.000000000000     0.156700000000     0     
O        O      0.839300000000     0.202300000000     0.051900000000     0     
O        O      0.859900000000     0.500000000000     0.081800000000     0     
O        O      0.192900000000     0.500000000000     0.133800000000     0     
O        O      0.919100000000     0.271000000000     0.122600000000     0     
O        O      0.750800000000     0.245500000000     0.005200000000     0     
O        O      0.164600000000     0.209400000000     0.145300000000     0     
O        O      0.097200000000     0.294800000000     0.190000000000     0     
O        O      0.188600000000     0.289000000000     0.053800000000     0     
O        O      0.750500000000     0.213800000000     0.336600000000     0     
O        O      0.179300000000     0.229300000000     0.255100000000     0     
O        O      0.169700000000     0.297500000000     0.355600000000     0     
O        O      0.179700000000     0.000000000000     0.327500000000     0     
O        O      0.064100000000     0.203400000000     0.273800000000     0     
O        O      0.045800000000     0.000000000000     0.346500000000     0     
O        O      0.168200000000     0.205600000000     0.457000000000     0     
O        O      0.146600000000     0.500000000000     0.424700000000     0     
O        O      0.212600000000     0.000000000000     0.532100000000     0     
O        O      0.786700000000     0.500000000000     0.355100000000     0     
O        O      0.877700000000     0.000000000000     0.324000000000     0     
O        O      0.001700000000     0.273400000000     0.327700000000     0     
O        O      0.952100000000     0.500000000000     0.266800000000     0     
O        O      0.840800000000     0.251200000000     0.359200000000     0     
O        O      0.911500000000     0.284700000000     0.315200000000     0     
O        O      0.741800000000     0.231600000000     0.501500000000     0     
O        O      0.797900000000     0.295500000000     0.438200000000     0     
O        O      0.090100000000     0.266300000000     0.381500000000     0     
O        O      0.670600000000     0.197100000000     0.158900000000     0     
O        O      0.594400000000     0.287700000000     0.184200000000     0     
O        O      0.657000000000     0.500000000000     0.177300000000     0     
O        O      0.559100000000     0.000000000000     0.181600000000     0     
O        O      0.695600000000     0.298500000000     0.070400000000     0     
O        O      0.697500000000     0.500000000000     0.989300000000     0     
O        O      0.325600000000     0.204700000000     0.232100000000     0     
O        O      0.304300000000     0.500000000000     0.199000000000     0     
O        O      0.414900000000     0.214200000000     0.117900000000     0     
O        O      0.449400000000     0.500000000000     0.144000000000     0     
O        O      0.349800000000     0.000000000000     0.114000000000     0     
O        O      0.710500000000     0.000000000000     0.103200000000     0     
O        O      0.252100000000     0.261900000000     0.149500000000     0     
O        O      0.335400000000     0.301100000000     0.135000000000     0     
O        O      0.444600000000     0.296900000000     0.223500000000     0     
O        O      0.339300000000     0.215800000000     0.034500000000     0     
O        O      0.504200000000     0.249900000000     0.162900000000     0     
O        O      0.250000000000     0.197600000000     0.343100000000     0     
O        O      0.674500000000     0.297800000000     0.260900000000     0     
O        O      0.670500000000     0.218400000000     0.362200000000     0     
O        O      0.687100000000     0.000000000000     0.293900000000     0     
O        O      0.557200000000     0.195800000000     0.264000000000     0     
O        O      0.556500000000     0.000000000000     0.346700000000     0     
O        O      0.651600000000     0.240000000000     0.459400000000     0     
O        O      0.654900000000     0.500000000000     0.400800000000     0     
O        O      0.689600000000     0.000000000000     0.523900000000     0     
O        O      0.272800000000     0.500000000000     0.360000000000     0     
O        O      0.347900000000     0.000000000000     0.315000000000     0     
O        O      0.497600000000     0.239300000000     0.324500000000     0     
O        O      0.447300000000     0.500000000000     0.305600000000     0     
O        O      0.331600000000     0.298800000000     0.335100000000     0     
O        O      0.407200000000     0.221800000000     0.305200000000     0     
O        O      0.313400000000     0.284600000000     0.433400000000     0     
O        O      0.586400000000     0.294900000000     0.367600000000     0     
T        Si     0.865100000000     0.317400000000     0.102600000000     0     
T        Si     0.798900000000     0.184200000000     0.994900000000     0     
T        Si     0.143700000000     0.316800000000     0.404600000000     0     
T        Si     0.794000000000     0.315000000000     0.372400000000     0     
T        Si     0.649200000000     0.319800000000     0.195400000000     0     
T        Si     0.701200000000     0.315400000000     0.007600000000     0     
T        Si     0.359900000000     0.182200000000     0.100400000000     0     
T        Si     0.695700000000     0.183000000000     0.313400000000     0     
T        Si     0.640800000000     0.314500000000     0.397300000000     0     
T        Si     0.353200000000     0.181900000000     0.296800000000     0     
T        Si     0.291900000000     0.319700000000     0.367700000000     0     
T        Si     0.055500000000     0.317100000000     0.219600000000     0     
T        Si     0.957900000000     0.185700000000     0.171600000000     0     
T        Si     0.199600000000     0.315100000000     0.120400000000     0     
T        Si     0.142300000000     0.183600000000     0.197300000000     0     
T        Si     0.194600000000     0.181700000000     0.320400000000     0     
T        Si     0.952500000000     0.315700000000     0.285100000000     0     
T        Si     0.864900000000     0.185400000000     0.312400000000     0     
T        Si     0.789800000000     0.183300000000     0.487700000000     0     
T        Si     0.050500000000     0.185500000000     0.332400000000     0     
T        Si     0.708900000000     0.181500000000     0.123800000000     0     
T        Si     0.304300000000     0.317400000000     0.179000000000     0     
T        Si     0.307400000000     0.188000000000     0.487300000000     0     
T        Si     0.812800000000     0.183100000000     0.184700000000     0     
T        Si     0.453400000000     0.315400000000     0.162300000000     0     
T        Si     0.553600000000     0.183200000000     0.198200000000     0     
T        Si     0.449200000000     0.314700000000     0.289400000000     0     
T        Si     0.549300000000     0.182200000000     0.325800000000     0     


