data_zeolite

_audit_creation_method RASPA-1.0
_audit_creation_date 2021-6-6
_audit_author_name ''

_cell_length_a    20.27
_cell_length_b    20.27
_cell_length_c    13.459
_cell_angle_alpha 90
_cell_angle_beta  90
_cell_angle_gamma 90
_cell_volume      44239.5

_symmetry_cell_setting          tetragonal
_symmetry_space_group_name_Hall 'I -4 -2'
_symmetry_space_group_name_H-M  'I -4 m 2'
_symmetry_Int_Tables_number     119

loop_
_symmetry_equiv_pos_as_xyz
 'x,y,z'
 '-x,-y,z'
 'y,-x,-z'
 '-y,x,-z'
 'x,-y,z'
 '-x,y,z'
 'y,x,-z'
 '-y,-x,-z'
 'x+1/2,y+1/2,z+1/2'
 '-x+1/2,-y+1/2,z+1/2'
 'y+1/2,-x+1/2,-z+1/2'
 '-y+1/2,x+1/2,-z+1/2'
 'x+1/2,-y+1/2,z+1/2'
 '-x+1/2,y+1/2,z+1/2'
 'y+1/2,x+1/2,-z+1/2'
 '-y+1/2,-x+1/2,-z+1/2'

loop_
_atom_site_label
_atom_site_type_symbol
_atom_site_fract_x
_atom_site_fract_y
_atom_site_fract_z
_atom_site_charge
O        O      0.095000000000     0.122000000000     0.093500000000     0     
O        O      0.097600000000     0.251600000000     0.096200000000     0     
O        O      0.088800000000     0.185600000000     0.263400000000     0     
O        O      0.199400000000     0.184000000000     0.161500000000     0     
O        O      0.120700000000     0.200200000000     0.451400000000     0     
O        O      0.098300000000     0.304400000000     0.340500000000     0     
O        O      0.000000000000     0.226700000000     0.391900000000     0     
O        O      0.300100000000     0.121900000000     0.081200000000     0     
O        O      0.314800000000     0.185200000000     0.250000000000     0     
O        O      0.297600000000     0.251700000000     0.084600000000     0     
O        O      0.295200000000     0.000000000000     0.014500000000     0     
O        O      0.378600000000     0.084700000000     0.936200000000     0     
O        O      0.000000000000     0.381800000000     0.391200000000     0     
O        O      0.081800000000     0.418200000000     0.250000000000     0     
O        O      0.000000000000     0.087600000000     0.971000000000     0     
T        Si     0.120300000000     0.185800000000     0.153600000000     0     
T        Si     0.076800000000     0.229200000000     0.361800000000     0     
T        Si     0.277900000000     0.185700000000     0.143900000000     0     
T        Si     0.306300000000     0.076000000000     0.984000000000     0     
T        Si     0.075600000000     0.379900000000     0.354400000000     0     
T        Si     0.076200000000     0.076200000000     0.000000000000     0     
T        Si     0.193000000000     0.193000000000     0.500000000000     0     


