data_zeolite

_audit_creation_method RASPA-1.0
_audit_creation_date 2021-6-6
_audit_author_name ''

_cell_length_a    5.01
_cell_length_b    31.234
_cell_length_c    9.012
_cell_angle_alpha 90
_cell_angle_beta  90
_cell_angle_gamma 90
_cell_volume      25383.9

_symmetry_cell_setting          orthorhombic
_symmetry_space_group_name_Hall '-P 2n 2ab'
_symmetry_space_group_name_H-M  'P b c n'
_symmetry_Int_Tables_number     60

loop_
_symmetry_equiv_pos_as_xyz
 'x,y,z'
 '-x+1/2,-y+1/2,z+1/2'
 '-x,y,-z+1/2'
 'x+1/2,-y+1/2,-z'
 '-x,-y,-z'
 'x+1/2,y+1/2,-z+1/2'
 'x,-y,z+1/2'
 '-x+1/2,y+1/2,z'

loop_
_atom_site_label
_atom_site_type_symbol
_atom_site_fract_x
_atom_site_fract_y
_atom_site_fract_z
_atom_site_charge
O        O      0.211200000000     0.762300000000     0.015800000000     0     
O        O      0.845000000000     0.817600000000     0.932600000000     0     
O        O      0.000000000000     0.756700000000     0.750000000000     0     
O        O      0.307800000000     0.102900000000     0.024300000000     0     
O        O      0.500000000000     0.147100000000     0.250000000000     0     
O        O      0.000000000000     0.121800000000     0.250000000000     0     
O        O      0.319800000000     0.033600000000     0.856000000000     0     
O        O      0.314400000000     0.026200000000     0.147200000000     0     
O        O      0.740100000000     0.055600000000     0.011900000000     0     
T        Si     0.942000000000     0.768600000000     0.920700000000     0     
T        Si     0.242300000000     0.138600000000     0.147900000000     0     
T        Si     0.418500000000     0.054700000000     0.009800000000     0     
T        Si     0.500000000000     0.996200000000     0.250000000000     0     


