data_zeolite

_audit_creation_method RASPA-1.0
_audit_creation_date 2022-1-5
_audit_author_name ''

_cell_length_a    24.2005
_cell_length_b    12.5399
_cell_length_c    14.2502
_cell_angle_alpha 72.599
_cell_angle_beta  123.128
_cell_angle_gamma 90
_cell_volume      60890.4

_symmetry_cell_setting          triclinic
_symmetry_space_group_name_Hall '-P 1'
_symmetry_space_group_name_H-M  'P -1'
_symmetry_Int_Tables_number     2

loop_
_symmetry_equiv_pos_as_xyz
 'x,y,z'
 '-x,-y,-z'

loop_
_atom_site_label
_atom_site_type_symbol
_atom_site_fract_x
_atom_site_fract_y
_atom_site_fract_z
_atom_site_charge
T        Si     0.051790000000     0.482340000000     0.915110000000     0     
T        Si     0.072580000000     0.708990000000     0.795270000000     0     
T        Si     0.057330000000     0.859430000000     0.916740000000     0     
T        Si     0.156700000000     0.810730000000     0.701820000000     0     
T        Si     0.076900000000     0.898100000000     0.423280000000     0     
T        Si     0.168280000000     0.857740000000     0.346490000000     0     
T        Si     0.101530000000     0.729140000000     0.178640000000     0     
T        Si     0.091160000000     0.109400000000     0.167800000000     0     
T        Si     0.311080000000     0.853230000000     0.564720000000     0     
T        Si     0.302510000000     0.713470000000     0.780040000000     0     
T        Si     0.394210000000     0.478910000000     0.919810000000     0     
T        Si     0.492870000000     0.507570000000     0.834260000000     0     
T        Si     0.457750000000     0.754190000000     0.666620000000     0     
T        Si     0.490440000000     0.891250000000     0.833100000000     0     
T        Si     0.392140000000     0.866370000000     0.908750000000     0     
T        Si     0.475860000000     0.886810000000     0.473180000000     0     
T        Si     0.456390000000     0.138650000000     0.654110000000     0     
T        Si     0.486780000000     0.268450000000     0.825880000000     0     
T        Si     0.389870000000     0.242910000000     0.903730000000     0     
T        Si     0.298030000000     0.101650000000     0.773470000000     0     
T        Si     0.310390000000     0.109060000000     0.562890000000     0     
T        Si     0.165530000000     0.243100000000     0.338690000000     0     
T        Si     0.099730000000     0.489170000000     0.167510000000     0     
T        Si     0.073150000000     0.144590000000     0.414550000000     0     
T        Si     0.152870000000     0.057350000000     0.692520000000     0     
T        Si     0.069080000000     0.098440000000     0.785400000000     0     
T        Si     0.045910000000     0.242060000000     0.904860000000     0     
O        O      0.072630000000     0.357070000000     0.921750000000     0     
O        O      0.072500000000     0.574890000000     0.839720000000     0     
O        O      0.000580000000     0.774280000000     0.672100000000     0     
O        O      0.086080000000     0.759610000000     0.895760000000     0     
O        O      0.081040000000     0.974650000000     0.877820000000     0     
O        O      0.131040000000     0.725910000000     0.773180000000     0     
O        O      0.171040000000     0.920040000000     0.742640000000     0     
O        O      0.225110000000     0.745690000000     0.732940000000     0     
O        O      0.099390000000     0.851900000000     0.559920000000     0     
O        O      0.004340000000     0.870570000000     0.338590000000     0     
O        O      0.132130000000     0.837190000000     0.415630000000     0     
O        O      0.160050000000     0.759580000000     0.290810000000     0     
O        O      0.085020000000     0.821710000000     0.055850000000     0     
O        O      0.035190000000     0.731360000000     0.179220000000     0     
O        O      0.125280000000     0.603470000000     0.189770000000     0     
O        O      0.132760000000     0.979730000000     0.238910000000     0     
O        O      0.071840000000     0.148260000000     0.033370000000     0     
O        O      0.023740000000     0.117520000000     0.164560000000     0     
O        O      0.136710000000     0.191150000000     0.233690000000     0     
O        O      0.246790000000     0.857250000000     0.436810000000     0     
O        O      0.310330000000     0.977270000000     0.575370000000     0     
O        O      0.378770000000     0.812060000000     0.577930000000     0     
O        O      0.309010000000     0.761980000000     0.669150000000     0     
O        O      0.349950000000     0.767440000000     0.879980000000     0     
O        O      0.326810000000     0.576680000000     0.837690000000     0     
O        O      0.374240000000     0.355870000000     0.923700000000     0     
O        O      0.437000000000     0.501740000000     0.862990000000     0     
O        O      0.504880000000     0.393410000000     0.812520000000     0     
O        O      0.562330000000     0.518570000000     0.946290000000     0     
O        O      0.467460000000     0.617370000000     0.716050000000     0     
O        O      0.493110000000     0.797970000000     0.778080000000     0     
O        O      0.555860000000     0.855080000000     0.969130000000     0     
O        O      0.423480000000     0.897310000000     0.831510000000     0     
O        O      0.341790000000     0.977750000000     0.872950000000     0     
O        O      0.491450000000     0.791080000000     0.593760000000     0     
O        O      0.396060000000     0.916470000000     0.370900000000     0     
O        O      0.500000000000     0.000000000000     0.500000000000     0     
O        O      0.484780000000     0.160870000000     0.572240000000     0     
O        O      0.376460000000     0.144760000000     0.571260000000     0     
O        O      0.491960000000     0.013630000000     0.756490000000     0     
O        O      0.472310000000     0.233810000000     0.715480000000     0     
O        O      0.548090000000     0.176100000000     0.950490000000     0     
O        O      0.419650000000     0.272000000000     0.823980000000     0     
O        O      0.321600000000     0.196590000000     0.835290000000     0     
O        O      0.219120000000     0.106320000000     0.716560000000     0     
O        O      0.310080000000     0.129230000000     0.668960000000     0     
O        O      0.244740000000     0.189380000000     0.435610000000     0     
O        O      0.154360000000     0.379580000000     0.281270000000     0     
O        O      0.028370000000     0.487570000000     0.150610000000     0     
O        O      0.091400000000     0.484860000000     0.048770000000     0     
O        O      0.126550000000     0.213220000000     0.402530000000     0     
O        O      0.071550000000     0.034120000000     0.378350000000     0     
O        O      0.094990000000     0.103870000000     0.550690000000     0     
O        O      0.126190000000     0.099260000000     0.759810000000     0     
O        O      0.074630000000     0.193100000000     0.843970000000     0     


