data_zeolite

_audit_creation_method RASPA-1.0
_audit_creation_date 2021-6-7
_audit_author_name ''

_cell_length_a    12.937
_cell_length_b    12.937
_cell_length_c    10.0312
_cell_angle_alpha 90
_cell_angle_beta  90
_cell_angle_gamma 120
_cell_volume      39256.9

_symmetry_cell_setting          trigonal
_symmetry_space_group_name_Hall '-P 3 2"'
_symmetry_space_group_name_H-M  'P -3 m 1'
_symmetry_Int_Tables_number     164

loop_
_symmetry_equiv_pos_as_xyz
 'x,y,z'
 '-y,x-y,z'
 '-x+y,-x,z'
 'y,x,-z'
 'x-y,-y,-z'
 '-x,-x+y,-z'
 '-x,-y,-z'
 'y,-x+y,-z'
 'x-y,x,-z'
 '-y,-x,z'
 '-x+y,y,z'
 'x,x-y,z'

loop_
_atom_site_label
_atom_site_type_symbol
_atom_site_fract_x
_atom_site_fract_y
_atom_site_fract_z
_atom_site_charge
T        Si     0.000420000000     0.237640000000     0.345980000000     0     
T        Si     0.093340000000     0.428090000000     0.121320000000     0     
O        O      0.098930000000     0.197860000000     0.324200000000     0     
O        O      0.032670000000     0.351970000000     0.254250000000     0     
O        O      0.870680000000     0.129320000000     0.305800000000     0     
O        O      0.000000000000     0.272340000000     0.500000000000     0     
O        O      0.130940000000     0.565470000000     0.146010000000     0     
O        O      0.000000000000     0.375090000000     0.000000000000     0     
O        O      0.209810000000     0.419620000000     0.083900000000     0     


