data_zeolite

_audit_creation_method RASPA-1.0
_audit_creation_date 2021-6-7
_audit_author_name ''

_cell_length_a    18.653
_cell_length_b    18.653
_cell_length_c    9.441
_cell_angle_alpha 90
_cell_angle_beta  90
_cell_angle_gamma 90
_cell_volume      39418.2

_symmetry_cell_setting          tetragonal
_symmetry_space_group_name_Hall '-P 4a 2a'
_symmetry_space_group_name_H-M  'P 4/n m m'
_symmetry_Int_Tables_number     129

loop_
_symmetry_equiv_pos_as_xyz
 'x,y,z'
 '-x+1/2,-y+1/2,z'
 '-y+1/2,x,z'
 'y,-x+1/2,z'
 '-x,y+1/2,-z'
 'x+1/2,-y,-z'
 'y+1/2,x+1/2,-z'
 '-y,-x,-z'
 '-x,-y,-z'
 'x+1/2,y+1/2,-z'
 'y+1/2,-x,-z'
 '-y,x+1/2,-z'
 'x,-y+1/2,z'
 '-x+1/2,y,z'
 '-y+1/2,-x+1/2,z'
 'y,x,z'

loop_
_atom_site_label
_atom_site_type_symbol
_atom_site_fract_x
_atom_site_fract_y
_atom_site_fract_z
_atom_site_charge
O        O      0.131400000000     0.631400000000     0.000000000000     0     
O        O      0.080300000000     0.750000000000     0.115800000000     0     
O        O      0.877800000000     0.877800000000     0.837600000000     0     
O        O      0.990900000000     0.842800000000     0.994300000000     0     
O        O      0.938600000000     0.750000000000     0.807000000000     0     
O        O      0.920400000000     0.420400000000     0.500000000000     0     
O        O      0.993400000000     0.367000000000     0.281200000000     0     
O        O      0.875100000000     0.444000000000     0.237800000000     0     
O        O      0.992400000000     0.507600000000     0.330000000000     0     
T        Si     0.065800000000     0.554400000000     0.337200000000     0     
T        Si     0.953500000000     0.665600000000     0.839500000000     0     
T        Si     0.064200000000     0.834400000000     0.086300000000     0     


