data_CON

_audit_creation_method RASPA-1.0
_audit_creation_date 2021-12-21
_audit_author_name ''

_cell_length_a    22.684
_cell_length_b    13.373
_cell_length_c    12.553
_cell_angle_alpha 90
_cell_angle_beta  69.479
_cell_angle_gamma 90
_cell_volume      42796.2

_symmetry_cell_setting          monoclinic
_symmetry_space_group_name_Hall '-C 2y'
_symmetry_space_group_name_H-M  'C 1 2/m 1'
_symmetry_Int_Tables_number     12

loop_
_symmetry_equiv_pos_as_xyz
 'x,y,z'
 '-x,y,-z'
 '-x,-y,-z'
 'x,-y,z'
 'x+1/2,y+1/2,z'
 '-x+1/2,y+1/2,-z'
 '-x+1/2,-y+1/2,-z'
 'x+1/2,-y+1/2,z'

loop_
_atom_site_label
_atom_site_type_symbol
_atom_site_fract_x
_atom_site_fract_y
_atom_site_fract_z
_atom_site_charge
O        O      0.000000000000     0.150600000000     0.500000000000     0     
O        O      0.079600000000     0.000000000000     0.448500000000     0     
O        O      0.119600000000     0.181800000000     0.382300000000     0     
O        O      0.084600000000     0.134100000000     0.598400000000     0     
O        O      0.221900000000     0.129200000000     0.212900000000     0     
O        O      0.180500000000     0.313900000000     0.227700000000     0     
O        O      0.117700000000     0.169000000000     0.174500000000     0     
O        O      0.117700000000     0.186700000000     0.771500000000     0     
O        O      0.000200000000     0.138800000000     0.805100000000     0     
O        O      0.087800000000     0.000000000000     0.749500000000     0     
O        O      0.307000000000     0.000000000000     0.094100000000     0     
O        O      0.269500000000     0.144400000000     0.990300000000     0     
O        O      0.339300000000     0.186300000000     0.113200000000     0     
O        O      0.292800000000     0.000000000000     0.839000000000     0     
O        O      0.201600000000     0.128000000000     0.859200000000     0     
O        O      0.085000000000     0.000000000000     0.103500000000     0     
O        O      0.085700000000     0.167100000000     0.992800000000     0     
T        Si     0.070900000000     0.116500000000     0.482500000000     0     
T        Si     0.159800000000     0.198300000000     0.249600000000     0     
T        Si     0.072500000000     0.114900000000     0.731000000000     0     
T        Si     0.284500000000     0.114800000000     0.102600000000     0     
T        Si     0.270800000000     0.114600000000     0.865300000000     0     
T        Si     0.071900000000     0.118400000000     0.116600000000     0     
T        Si     0.141500000000     0.199000000000     0.877600000000     0     


