data_zeolite

_audit_creation_method RASPA-1.0
_audit_creation_date 2021-6-6
_audit_author_name ''

_cell_length_a    8.444
_cell_length_b    14.083
_cell_length_c    15.929
_cell_angle_alpha 90
_cell_angle_beta  90
_cell_angle_gamma 90
_cell_volume      30307.6

_symmetry_cell_setting          orthorhombic
_symmetry_space_group_name_Hall '-P 2ac 2n'
_symmetry_space_group_name_H-M  'P n m a'
_symmetry_Int_Tables_number     62

loop_
_symmetry_equiv_pos_as_xyz
 'x,y,z'
 '-x+1/2,-y,z+1/2'
 '-x,y+1/2,-z'
 'x+1/2,-y+1/2,-z+1/2'
 '-x,-y,-z'
 'x+1/2,y,-z+1/2'
 'x,-y+1/2,z'
 '-x+1/2,y+1/2,z+1/2'

loop_
_atom_site_label
_atom_site_type_symbol
_atom_site_fract_x
_atom_site_fract_y
_atom_site_fract_z
_atom_site_charge
O        O      0.883900000000     0.250000000000     0.167400000000     0     
O        O      0.729800000000     0.128300000000     0.072700000000     0     
O        O      0.975000000000     0.071500000000     0.161500000000     0     
O        O      0.708600000000     0.117300000000     0.237000000000     0     
O        O      0.560100000000     0.387300000000     0.935000000000     0     
O        O      0.433000000000     0.427000000000     0.081500000000     0     
O        O      0.500800000000     0.250000000000     0.042400000000     0     
O        O      0.035200000000     0.533500000000     0.294200000000     0     
O        O      0.233000000000     0.533000000000     0.166400000000     0     
T        Si     0.824500000000     0.141700000000     0.159600000000     0     
T        Si     0.555800000000     0.358900000000     0.032900000000     0     
T        Si     0.112800000000     0.469500000000     0.221200000000     0     
T        Si     0.410400000000     0.973400000000     0.129600000000     0     


