data_zeolite

_audit_creation_method RASPA-1.0
_audit_creation_date 2021-6-6
_audit_author_name ''

_cell_length_a    8.724
_cell_length_b    20.06
_cell_length_c    10.166
_cell_angle_alpha 90
_cell_angle_beta  90
_cell_angle_gamma 90
_cell_volume      32023.5

_symmetry_cell_setting          orthorhombic
_symmetry_space_group_name_Hall '-C 2ac 2'
_symmetry_space_group_name_H-M  'C m c a'
_symmetry_Int_Tables_number     64

loop_
_symmetry_equiv_pos_as_xyz
 'x,y,z'
 '-x,-y+1/2,z+1/2'
 '-x,y+1/2,-z+1/2'
 'x,-y,-z'
 '-x,-y,-z'
 'x,y+1/2,-z+1/2'
 'x,-y+1/2,z+1/2'
 '-x,y,z'
 'x+1/2,y+1/2,z'
 '-x+1/2,-y,z+1/2'
 '-x+1/2,y,-z+1/2'
 'x+1/2,-y+1/2,-z'
 '-x+1/2,-y+1/2,-z'
 'x+1/2,y,-z+1/2'
 'x+1/2,-y,z+1/2'
 '-x+1/2,y+1/2,z'

loop_
_atom_site_label
_atom_site_type_symbol
_atom_site_fract_x
_atom_site_fract_y
_atom_site_fract_z
_atom_site_charge
O        O      0.213700000000     0.000000000000     0.000000000000     0     
O        O      0.000000000000     0.067300000000     0.874200000000     0     
O        O      0.250000000000     0.030200000000     0.750000000000     0     
O        O      0.263400000000     0.124000000000     0.929900000000     0     
O        O      0.500000000000     0.202700000000     0.890600000000     0     
O        O      0.250000000000     0.218000000000     0.750000000000     0     
O        O      0.250000000000     0.250000000000     0.000000000000     0     
T        Si     0.181500000000     0.055200000000     0.888600000000     0     
T        Si     0.316000000000     0.198600000000     0.892700000000     0     


