data_zeolite

_audit_creation_method RASPA-1.0
_audit_creation_date 2021-6-10
_audit_author_name ''

_cell_length_a    13.6806
_cell_length_b    13.6806
_cell_length_c    44.1601
_cell_angle_alpha 90
_cell_angle_beta  90
_cell_angle_gamma 120
_cell_volume      64419

_symmetry_cell_setting          trigonal
_symmetry_space_group_name_Hall '-R 3 2"'
_symmetry_space_group_name_H-M  'R -3 m'
_symmetry_Int_Tables_number     166

loop_
_symmetry_equiv_pos_as_xyz
 'x,y,z'
 '-y,x-y,z'
 '-x+y,-x,z'
 'y,x,-z'
 'x-y,-y,-z'
 '-x,-x+y,-z'
 '-x,-y,-z'
 'y,-x+y,-z'
 'x-y,x,-z'
 '-y,-x,z'
 '-x+y,y,z'
 'x,x-y,z'
 'x+2/3,y+1/3,z+1/3'
 '-y+2/3,x-y+1/3,z+1/3'
 '-x+y+2/3,-x+1/3,z+1/3'
 'y+2/3,x+1/3,-z+1/3'
 'x-y+2/3,-y+1/3,-z+1/3'
 '-x+2/3,-x+y+1/3,-z+1/3'
 '-x+2/3,-y+1/3,-z+1/3'
 'y+2/3,-x+y+1/3,-z+1/3'
 'x-y+2/3,x+1/3,-z+1/3'
 '-y+2/3,-x+1/3,z+1/3'
 '-x+y+2/3,y+1/3,z+1/3'
 'x+2/3,x-y+1/3,z+1/3'
 'x+1/3,y+2/3,z+2/3'
 '-y+1/3,x-y+2/3,z+2/3'
 '-x+y+1/3,-x+2/3,z+2/3'
 'y+1/3,x+2/3,-z+2/3'
 'x-y+1/3,-y+2/3,-z+2/3'
 '-x+1/3,-x+y+2/3,-z+2/3'
 '-x+1/3,-y+2/3,-z+2/3'
 'y+1/3,-x+y+2/3,-z+2/3'
 'x-y+1/3,x+2/3,-z+2/3'
 '-y+1/3,-x+2/3,z+2/3'
 '-x+y+1/3,y+2/3,z+2/3'
 'x+1/3,x-y+2/3,z+2/3'

loop_
_atom_site_label
_atom_site_type_symbol
_atom_site_fract_x
_atom_site_fract_y
_atom_site_fract_z
_atom_site_charge
T        Si     0.999690000000     0.225280000000     0.257350000000     0     
T        Si     0.999720000000     0.225970000000     0.186820000000     0     
T        Si     0.999650000000     0.225710000000     0.035060000000     0     
O        O      0.000030000000     0.255450000000     0.222110000000     0     
O        O      0.121100000000     0.242200000000     0.266510000000     0     
O        O      0.903740000000     0.096260000000     0.263330000000     0     
O        O      0.974220000000     0.307960000000     0.277550000000     0     
O        O      0.901910000000     0.098090000000     0.180420000000     0     
O        O      0.977950000000     0.311280000000     0.166670000000     0     
O        O      0.120080000000     0.240160000000     0.177740000000     0     
O        O      0.000000000000     0.257960000000     0.000000000000     0     
O        O      0.120950000000     0.241900000000     0.043980000000     0     
O        O      0.903530000000     0.096470000000     0.040640000000     0     


