data_zeolite

_audit_creation_method RASPA-1.0
_audit_creation_date 2021-6-7
_audit_author_name ''

_cell_length_a    10.248
_cell_length_b    13.788
_cell_length_c    6.782
_cell_angle_alpha 90
_cell_angle_beta  111.545
_cell_angle_gamma 90
_cell_volume      26740.1

_symmetry_cell_setting          monoclinic
_symmetry_space_group_name_Hall '-C 2y'
_symmetry_space_group_name_H-M  'C 1 2/m 1'
_symmetry_Int_Tables_number     12

loop_
_symmetry_equiv_pos_as_xyz
 'x,y,z'
 '-x,y,-z'
 '-x,-y,-z'
 'x,-y,z'
 'x+1/2,y+1/2,z'
 '-x+1/2,y+1/2,-z'
 '-x+1/2,-y+1/2,-z'
 'x+1/2,-y+1/2,z'

loop_
_atom_site_label
_atom_site_type_symbol
_atom_site_fract_x
_atom_site_fract_y
_atom_site_fract_z
_atom_site_charge
O        O      0.250000000000     0.250000000000     0.500000000000     0     
O        O      0.339900000000     0.168500000000     0.223700000000     0     
O        O      0.274200000000     0.353500000000     0.189800000000     0     
O        O      0.500000000000     0.293500000000     0.500000000000     0     
O        O      0.354200000000     0.000000000000     0.052500000000     0     
O        O      0.500000000000     0.148100000000     0.000000000000     0     
T        Si     0.341100000000     0.266300000000     0.353800000000     0     
T        Si     0.354900000000     0.115600000000     0.021400000000     0     


