data_zeolite

_audit_creation_method RASPA-1.0
_audit_creation_date 2021-6-7
_audit_author_name ''

_cell_length_a    14.013
_cell_length_b    20.027
_cell_length_c    12.488
_cell_angle_alpha 90
_cell_angle_beta  106.08
_cell_angle_gamma 90
_cell_volume      40410

_symmetry_cell_setting          monoclinic
_symmetry_space_group_name_Hall '-P 2yb'
_symmetry_space_group_name_H-M  'P 1 21/m 1'
_symmetry_Int_Tables_number     11

loop_
_symmetry_equiv_pos_as_xyz
 'x,y,z'
 '-x,y+1/2,-z'
 '-x,-y,-z'
 'x,-y+1/2,z'

loop_
_atom_site_label
_atom_site_type_symbol
_atom_site_fract_x
_atom_site_fract_y
_atom_site_fract_z
_atom_site_charge
O        O      0.475900000000     0.641100000000     0.686800000000     0     
O        O      0.356500000000     0.167900000000     0.503100000000     0     
O        O      0.447700000000     0.250000000000     0.661300000000     0     
O        O      0.323400000000     0.161400000000     0.699300000000     0     
O        O      0.177800000000     0.144000000000     0.369000000000     0     
O        O      0.302900000000     0.045300000000     0.441000000000     0     
O        O      0.334200000000     0.131600000000     0.295200000000     0     
O        O      0.156600000000     0.142600000000     0.752000000000     0     
O        O      0.326400000000     0.146100000000     0.909200000000     0     
O        O      0.285600000000     0.044200000000     0.773200000000     0     
O        O      0.495600000000     0.121700000000     0.675100000000     0     
O        O      0.323600000000     0.575500000000     0.713400000000     0     
O        O      0.480100000000     0.509000000000     0.693400000000     0     
O        O      0.365000000000     0.572700000000     0.520500000000     0     
O        O      0.415300000000     0.250000000000     0.293400000000     0     
O        O      0.394300000000     0.168900000000     0.122500000000     0     
O        O      0.349800000000     0.544800000000     0.310900000000     0     
O        O      0.416100000000     0.561800000000     0.136200000000     0     
O        O      0.440700000000     0.250000000000     0.979000000000     0     
O        O      0.517900000000     0.130100000000     0.009000000000     0     
O        O      0.109600000000     0.171500000000     0.539600000000     0     
O        O      0.971400000000     0.130100000000     0.629200000000     0     
O        O      0.050300000000     0.250000000000     0.676800000000     0     
O        O      0.066300000000     0.250000000000     0.364100000000     0     
O        O      0.987500000000     0.130200000000     0.350600000000     0     
O        O      0.156000000000     0.552100000000     0.761300000000     0     
O        O      0.324300000000     0.553500000000     0.921500000000     0     
O        O      0.188200000000     0.559300000000     0.378700000000     0     
O        O      0.500000000000     0.500000000000     0.000000000000     0     
O        O      0.984600000000     0.500400000000     0.652700000000     0     
O        O      0.103800000000     0.551000000000     0.542300000000     0     
T        Si     0.084100000000     0.560200000000     0.409900000000     0     
T        Si     0.292900000000     0.122300000000     0.402400000000     0     
T        Si     0.272700000000     0.123600000000     0.783200000000     0     
T        Si     0.411700000000     0.573800000000     0.653600000000     0     
T        Si     0.416900000000     0.173200000000     0.255800000000     0     
T        Si     0.448200000000     0.554700000000     0.269900000000     0     
T        Si     0.420300000000     0.173400000000     0.005000000000     0     
T        Si     0.071400000000     0.173600000000     0.649900000000     0     
T        Si     0.085200000000     0.173800000000     0.405900000000     0     
T        Si     0.272600000000     0.534200000000     0.793500000000     0     
T        Si     0.301200000000     0.533000000000     0.412000000000     0     
T        Si     0.430400000000     0.561500000000     0.012700000000     0     
T        Si     0.063900000000     0.558200000000     0.650900000000     0     
T        Si     0.406700000000     0.174800000000     0.635300000000     0     


