data_zeolite

_audit_creation_method RASPA-1.0
_audit_creation_date 2021-6-12
_audit_author_name ''

_cell_length_a    44.7444
_cell_length_b    44.7444
_cell_length_c    44.7444
_cell_angle_alpha 90
_cell_angle_beta  90
_cell_angle_gamma 90
_cell_volume      89580.9

_symmetry_cell_setting          cubic
_symmetry_space_group_name_Hall '-I 4 2 3'
_symmetry_space_group_name_H-M  'I m -3 m'
_symmetry_Int_Tables_number     229

loop_
_symmetry_equiv_pos_as_xyz
 'x,y,z'
 '-x,-y,z'
 '-x,y,-z'
 'x,-y,-z'
 'z,x,y'
 'z,-x,-y'
 '-z,-x,y'
 '-z,x,-y'
 'y,z,x'
 '-y,z,-x'
 'y,-z,-x'
 '-y,-z,x'
 'y,x,-z'
 '-y,-x,-z'
 'y,-x,z'
 '-y,x,z'
 'x,z,-y'
 '-x,z,y'
 '-x,-z,-y'
 'x,-z,y'
 'z,y,-x'
 'z,-y,x'
 '-z,y,x'
 '-z,-y,-x'
 '-x,-y,-z'
 'x,y,-z'
 'x,-y,z'
 '-x,y,z'
 '-z,-x,-y'
 '-z,x,y'
 'z,x,-y'
 'z,-x,y'
 '-y,-z,-x'
 'y,-z,x'
 '-y,z,x'
 'y,z,-x'
 '-y,-x,z'
 'y,x,z'
 '-y,x,-z'
 'y,-x,-z'
 '-x,-z,y'
 'x,-z,-y'
 'x,z,y'
 '-x,z,-y'
 '-z,-y,x'
 '-z,y,-x'
 'z,-y,-x'
 'z,y,x'
 'x+1/2,y+1/2,z+1/2'
 '-x+1/2,-y+1/2,z+1/2'
 '-x+1/2,y+1/2,-z+1/2'
 'x+1/2,-y+1/2,-z+1/2'
 'z+1/2,x+1/2,y+1/2'
 'z+1/2,-x+1/2,-y+1/2'
 '-z+1/2,-x+1/2,y+1/2'
 '-z+1/2,x+1/2,-y+1/2'
 'y+1/2,z+1/2,x+1/2'
 '-y+1/2,z+1/2,-x+1/2'
 'y+1/2,-z+1/2,-x+1/2'
 '-y+1/2,-z+1/2,x+1/2'
 'y+1/2,x+1/2,-z+1/2'
 '-y+1/2,-x+1/2,-z+1/2'
 'y+1/2,-x+1/2,z+1/2'
 '-y+1/2,x+1/2,z+1/2'
 'x+1/2,z+1/2,-y+1/2'
 '-x+1/2,z+1/2,y+1/2'
 '-x+1/2,-z+1/2,-y+1/2'
 'x+1/2,-z+1/2,y+1/2'
 'z+1/2,y+1/2,-x+1/2'
 'z+1/2,-y+1/2,x+1/2'
 '-z+1/2,y+1/2,x+1/2'
 '-z+1/2,-y+1/2,-x+1/2'
 '-x+1/2,-y+1/2,-z+1/2'
 'x+1/2,y+1/2,-z+1/2'
 'x+1/2,-y+1/2,z+1/2'
 '-x+1/2,y+1/2,z+1/2'
 '-z+1/2,-x+1/2,-y+1/2'
 '-z+1/2,x+1/2,y+1/2'
 'z+1/2,x+1/2,-y+1/2'
 'z+1/2,-x+1/2,y+1/2'
 '-y+1/2,-z+1/2,-x+1/2'
 'y+1/2,-z+1/2,x+1/2'
 '-y+1/2,z+1/2,x+1/2'
 'y+1/2,z+1/2,-x+1/2'
 '-y+1/2,-x+1/2,z+1/2'
 'y+1/2,x+1/2,z+1/2'
 '-y+1/2,x+1/2,-z+1/2'
 'y+1/2,-x+1/2,-z+1/2'
 '-x+1/2,-z+1/2,y+1/2'
 'x+1/2,-z+1/2,-y+1/2'
 'x+1/2,z+1/2,y+1/2'
 '-x+1/2,z+1/2,-y+1/2'
 '-z+1/2,-y+1/2,x+1/2'
 '-z+1/2,y+1/2,-x+1/2'
 'z+1/2,-y+1/2,-x+1/2'
 'z+1/2,y+1/2,x+1/2'

loop_
_atom_site_label
_atom_site_type_symbol
_atom_site_fract_x
_atom_site_fract_y
_atom_site_fract_z
_atom_site_charge
T        Si     0.854110000000     0.583570000000     0.534600000000     0     
T        Si     0.812280000000     0.638780000000     0.534530000000     0     
T        Si     0.742800000000     0.639190000000     0.534470000000     0     
T        Si     0.701250000000     0.583420000000     0.534550000000     0     
T        Si     0.632220000000     0.583460000000     0.534550000000     0     
T        Si     0.577310000000     0.083590000000     0.034650000000     0     
T        Si     0.534490000000     0.137830000000     0.034510000000     0     
T        Si     0.694120000000     0.645320000000     0.812540000000     0     
T        Si     0.743480000000     0.576720000000     0.694640000000     0     
T        Si     0.694470000000     0.645590000000     0.743360000000     0     
T        Si     0.694670000000     0.812680000000     0.576270000000     0     
T        Si     0.965740000000     0.694000000000     0.645090000000     0     
T        Si     0.924070000000     0.805380000000     0.534220000000     0     
T        Si     0.923410000000     0.354280000000     0.749370000000     0     
T        Si     0.750000000000     0.354240000000     0.145760000000     0     
T        Si     0.750000000000     0.423430000000     0.076570000000     0     
O        O      0.832310000000     0.610510000000     0.544230000000     0     
O        O      0.777490000000     0.630870000000     0.539130000000     0     
O        O      0.722350000000     0.611080000000     0.543730000000     0     
O        O      0.666740000000     0.592290000000     0.539530000000     0     
O        O      0.111600000000     0.593320000000     0.539480000000     0     
O        O      0.555570000000     0.110480000000     0.044600000000     0     
O        O      0.685860000000     0.610740000000     0.818050000000     0     
O        O      0.702800000000     0.778020000000     0.650520000000     0     
O        O      0.738190000000     0.685530000000     0.611120000000     0     
O        O      0.778040000000     0.571420000000     0.703080000000     0     
O        O      0.333140000000     0.555140000000     0.178750000000     0     
O        O      0.332780000000     0.555340000000     0.265740000000     0     
O        O      0.932440000000     0.777170000000     0.666700000000     0     
O        O      0.945020000000     0.833570000000     0.458040000000     0     
O        O      0.778180000000     0.932590000000     0.443840000000     0     
O        O      0.778040000000     0.666580000000     0.845580000000     0     
O        O      0.741240000000     0.111250000000     0.349090000000     0     
O        O      0.611220000000     0.071260000000     0.241930000000     0     
O        O      0.889570000000     0.539160000000     0.185700000000     0     
O        O      0.345720000000     0.278940000000     0.056110000000     0     
O        O      0.818470000000     0.353270000000     0.500000000000     0     
O        O      0.929200000000     0.795530000000     0.500000000000     0     
O        O      0.571640000000     0.075800000000     0.000000000000     0     
O        O      0.540760000000     0.145810000000     0.000000000000     0     
O        O      0.848590000000     0.575470000000     0.500000000000     0     
O        O      0.736890000000     0.647600000000     0.500000000000     0     
O        O      0.706740000000     0.575080000000     0.500000000000     0     
O        O      0.626790000000     0.575030000000     0.500000000000     0     
O        O      0.849550000000     0.500000000000     0.203590000000     0     
O        O      0.570030000000     0.054490000000     0.054490000000     0     
O        O      0.846730000000     0.554620000000     0.554620000000     0     
O        O      0.709470000000     0.554960000000     0.554960000000     0     
O        O      0.334810000000     0.334810000000     0.042010000000     0     
O        O      0.665730000000     0.665730000000     0.821020000000     0     
O        O      0.723220000000     0.723220000000     0.568550000000     0     
O        O      0.611350000000     0.611350000000     0.543550000000     0     
O        O      0.722850000000     0.653860000000     0.722850000000     0     
O        O      0.623920000000     0.555160000000     0.555160000000     0     
O        O      0.734550000000     0.666680000000     0.666680000000     0     
O        O      0.500000000000     0.128530000000     0.038760000000     0     


