data_zeolite

_audit_creation_method RASPA-1.0
_audit_creation_date 2021-6-7
_audit_author_name ''

_cell_length_a    7.806
_cell_length_b    7.806
_cell_length_c    27.35
_cell_angle_alpha 90
_cell_angle_beta  90
_cell_angle_gamma 90
_cell_volume      26664.6

_symmetry_cell_setting          tetragonal
_symmetry_space_group_name_Hall '-I 4bd 2'
_symmetry_space_group_name_H-M  'I 41/a m d'
_symmetry_Int_Tables_number     141

loop_
_symmetry_equiv_pos_as_xyz
 'x,y,z'
 '-x+1/2,-y,z+1/2'
 '-y+1/4,x+3/4,z+1/4'
 'y+1/4,-x+1/4,z+3/4'
 '-x+1/2,y,-z+1/2'
 'x,-y,-z'
 'y+1/4,x+3/4,-z+1/4'
 '-y+1/4,-x+1/4,-z+3/4'
 '-x,-y,-z'
 'x+1/2,y,-z+1/2'
 'y+3/4,-x+1/4,-z+3/4'
 '-y+3/4,x+3/4,-z+1/4'
 'x+1/2,-y,z+1/2'
 '-x,y,z'
 '-y+3/4,-x+1/4,z+3/4'
 'y+3/4,x+3/4,z+1/4'
 'x+1/2,y+1/2,z+1/2'
 '-x,-y+1/2,z'
 '-y+3/4,x+1/4,z+3/4'
 'y+3/4,-x+3/4,z+1/4'
 '-x,y+1/2,-z'
 'x+1/2,-y+1/2,-z+1/2'
 'y+3/4,x+1/4,-z+3/4'
 '-y+3/4,-x+3/4,-z+1/4'
 '-x+1/2,-y+1/2,-z+1/2'
 'x,y+1/2,-z'
 'y+1/4,-x+3/4,-z+1/4'
 '-y+1/4,x+1/4,-z+3/4'
 'x,-y+1/2,z'
 '-x+1/2,y+1/2,z+1/2'
 '-y+1/4,-x+3/4,z+1/4'
 'y+1/4,x+1/4,z+3/4'

loop_
_atom_site_label
_atom_site_type_symbol
_atom_site_fract_x
_atom_site_fract_y
_atom_site_fract_z
_atom_site_charge
O        O      0.169000000000     0.032200000000     0.082500000000     0     
O        O      0.000000000000     0.038200000000     0.396600000000     0     
O        O      0.000000000000     0.750000000000     0.065000000000     0     
O        O      0.000000000000     0.500000000000     0.000000000000     0     
T        Si     0.000000000000     0.545900000000     0.057200000000     0     
T        Si     0.691100000000     0.941100000000     0.875000000000     0     


