data_zeolite

_audit_creation_method RASPA-1.0
_audit_creation_date 2021-6-6
_audit_author_name ''

_cell_length_a    12.874
_cell_length_b    12.874
_cell_length_c    25.674
_cell_angle_alpha 90
_cell_angle_beta  90
_cell_angle_gamma 90
_cell_volume      17020.8

_symmetry_cell_setting          tetragonal
_symmetry_space_group_name_Hall '-P 4c 2'
_symmetry_space_group_name_H-M  'P 42/m m c'
_symmetry_Int_Tables_number     131

loop_
_symmetry_equiv_pos_as_xyz
 'x,y,z'
 '-x,-y,z'
 '-y,x,z+1/2'
 'y,-x,z+1/2'
 '-x,y,-z'
 'x,-y,-z'
 'y,x,-z+1/2'
 '-y,-x,-z+1/2'
 '-x,-y,-z'
 'x,y,-z'
 'y,-x,-z+1/2'
 '-y,x,-z+1/2'
 'x,-y,z'
 '-x,y,z'
 '-y,-x,z+1/2'
 'y,x,z+1/2'

loop_
_atom_site_label
_atom_site_type_symbol
_atom_site_fract_x
_atom_site_fract_y
_atom_site_fract_z
_atom_site_charge
O        O      0.145100000000     0.119500000000     0.000000000000     0     
O        O      0.133700000000     0.000000000000     0.082500000000     0     
O        O      0.000000000000     0.152400000000     0.070200000000     0     
O        O      0.195900000000     0.194500000000     0.091300000000     0     
O        O      0.398000000000     0.163700000000     0.910600000000     0     
O        O      0.321600000000     0.335500000000     0.948900000000     0     
O        O      0.316400000000     0.304000000000     0.847800000000     0     
O        O      0.500000000000     0.000000000000     0.057300000000     0     
O        O      0.500000000000     0.168500000000     0.000000000000     0     
O        O      0.500000000000     0.332600000000     0.000000000000     0     
O        O      0.384100000000     0.500000000000     0.000000000000     0     
O        O      0.353000000000     0.353000000000     0.250000000000     0     
O        O      0.500000000000     0.372600000000     0.179500000000     0     
O        O      0.340700000000     0.500000000000     0.179200000000     0     
T        Si     0.307900000000     0.249400000000     0.904000000000     0     
T        Si     0.118500000000     0.116800000000     0.061200000000     0     
T        Si     0.377400000000     0.382400000000     0.190300000000     0     
T        Si     0.500000000000     0.124800000000     0.058800000000     0     
T        Si     0.382300000000     0.375200000000     0.000000000000     0     


