data_zeolite

_audit_creation_method RASPA-1.0
_audit_creation_date 2021-6-13
_audit_author_name ''

_cell_length_a    24.8673
_cell_length_b    24.8673
_cell_length_c    24.8673
_cell_angle_alpha 90
_cell_angle_beta  90
_cell_angle_gamma 90
_cell_volume      123020

_symmetry_cell_setting          cubic
_symmetry_space_group_name_Hall '-I 4 2 3'
_symmetry_space_group_name_H-M  'I m -3 m'
_symmetry_Int_Tables_number     229

loop_
_symmetry_equiv_pos_as_xyz
 'x,y,z'
 '-x,-y,z'
 '-x,y,-z'
 'x,-y,-z'
 'z,x,y'
 'z,-x,-y'
 '-z,-x,y'
 '-z,x,-y'
 'y,z,x'
 '-y,z,-x'
 'y,-z,-x'
 '-y,-z,x'
 'y,x,-z'
 '-y,-x,-z'
 'y,-x,z'
 '-y,x,z'
 'x,z,-y'
 '-x,z,y'
 '-x,-z,-y'
 'x,-z,y'
 'z,y,-x'
 'z,-y,x'
 '-z,y,x'
 '-z,-y,-x'
 '-x,-y,-z'
 'x,y,-z'
 'x,-y,z'
 '-x,y,z'
 '-z,-x,-y'
 '-z,x,y'
 'z,x,-y'
 'z,-x,y'
 '-y,-z,-x'
 'y,-z,x'
 '-y,z,x'
 'y,z,-x'
 '-y,-x,z'
 'y,x,z'
 '-y,x,-z'
 'y,-x,-z'
 '-x,-z,y'
 'x,-z,-y'
 'x,z,y'
 '-x,z,-y'
 '-z,-y,x'
 '-z,y,-x'
 'z,-y,-x'
 'z,y,x'
 'x+1/2,y+1/2,z+1/2'
 '-x+1/2,-y+1/2,z+1/2'
 '-x+1/2,y+1/2,-z+1/2'
 'x+1/2,-y+1/2,-z+1/2'
 'z+1/2,x+1/2,y+1/2'
 'z+1/2,-x+1/2,-y+1/2'
 '-z+1/2,-x+1/2,y+1/2'
 '-z+1/2,x+1/2,-y+1/2'
 'y+1/2,z+1/2,x+1/2'
 '-y+1/2,z+1/2,-x+1/2'
 'y+1/2,-z+1/2,-x+1/2'
 '-y+1/2,-z+1/2,x+1/2'
 'y+1/2,x+1/2,-z+1/2'
 '-y+1/2,-x+1/2,-z+1/2'
 'y+1/2,-x+1/2,z+1/2'
 '-y+1/2,x+1/2,z+1/2'
 'x+1/2,z+1/2,-y+1/2'
 '-x+1/2,z+1/2,y+1/2'
 '-x+1/2,-z+1/2,-y+1/2'
 'x+1/2,-z+1/2,y+1/2'
 'z+1/2,y+1/2,-x+1/2'
 'z+1/2,-y+1/2,x+1/2'
 '-z+1/2,y+1/2,x+1/2'
 '-z+1/2,-y+1/2,-x+1/2'
 '-x+1/2,-y+1/2,-z+1/2'
 'x+1/2,y+1/2,-z+1/2'
 'x+1/2,-y+1/2,z+1/2'
 '-x+1/2,y+1/2,z+1/2'
 '-z+1/2,-x+1/2,-y+1/2'
 '-z+1/2,x+1/2,y+1/2'
 'z+1/2,x+1/2,-y+1/2'
 'z+1/2,-x+1/2,y+1/2'
 '-y+1/2,-z+1/2,-x+1/2'
 'y+1/2,-z+1/2,x+1/2'
 '-y+1/2,z+1/2,x+1/2'
 'y+1/2,z+1/2,-x+1/2'
 '-y+1/2,-x+1/2,z+1/2'
 'y+1/2,x+1/2,z+1/2'
 '-y+1/2,x+1/2,-z+1/2'
 'y+1/2,-x+1/2,-z+1/2'
 '-x+1/2,-z+1/2,y+1/2'
 'x+1/2,-z+1/2,-y+1/2'
 'x+1/2,z+1/2,y+1/2'
 '-x+1/2,z+1/2,-y+1/2'
 '-z+1/2,-y+1/2,x+1/2'
 '-z+1/2,y+1/2,-x+1/2'
 'z+1/2,-y+1/2,-x+1/2'
 'z+1/2,y+1/2,x+1/2'

loop_
_atom_site_label
_atom_site_type_symbol
_atom_site_fract_x
_atom_site_fract_y
_atom_site_fract_z
_atom_site_charge
T        Si     0.361900000000     0.150090000000     0.062120000000     0     
T        Si     0.238020000000     0.150260000000     0.062250000000     0     
T        Si     0.437830000000     0.250000000000     0.062170000000     0     
O        O      0.300000000000     0.166560000000     0.071420000000     0     
O        O      0.400510000000     0.199530000000     0.078010000000     0     
O        O      0.371200000000     0.134520000000     0.000000000000     0     
O        O      0.500000000000     0.234650000000     0.071580000000     0     
O        O      0.228430000000     0.135340000000     0.000000000000     0     
O        O      0.376650000000     0.098950000000     0.098950000000     0     
O        O      0.200080000000     0.200080000000     0.078680000000     0     
O        O      0.223390000000     0.099050000000     0.099050000000     0     


