data_zeolite

_audit_creation_method RASPA-1.0
_audit_creation_date 2021-6-7
_audit_author_name ''

_cell_length_a    14.97
_cell_length_b    14.97
_cell_length_c    14.97
_cell_angle_alpha 90
_cell_angle_beta  90
_cell_angle_gamma 90
_cell_volume      26838.3

_symmetry_cell_setting          cubic
_symmetry_space_group_name_Hall '-P 2ac 2ab 3'
_symmetry_space_group_name_H-M  'P a -3'
_symmetry_Int_Tables_number     205

loop_
_symmetry_equiv_pos_as_xyz
 'x,y,z'
 '-x+1/2,-y,z+1/2'
 '-x,y+1/2,-z+1/2'
 'x+1/2,-y+1/2,-z'
 'z,x,y'
 'z+1/2,-x+1/2,-y'
 '-z+1/2,-x,y+1/2'
 '-z,x+1/2,-y+1/2'
 'y,z,x'
 '-y,z+1/2,-x+1/2'
 'y+1/2,-z+1/2,-x'
 '-y+1/2,-z,x+1/2'
 '-x,-y,-z'
 'x+1/2,y,-z+1/2'
 'x,-y+1/2,z+1/2'
 '-x+1/2,y+1/2,z'
 '-z,-x,-y'
 '-z+1/2,x+1/2,y'
 'z+1/2,x,-y+1/2'
 'z,-x+1/2,y+1/2'
 '-y,-z,-x'
 'y,-z+1/2,x+1/2'
 '-y+1/2,z+1/2,x'
 'y+1/2,z,-x+1/2'

loop_
_atom_site_label
_atom_site_type_symbol
_atom_site_fract_x
_atom_site_fract_y
_atom_site_fract_z
_atom_site_charge
O        O      0.871400000000     0.084900000000     0.966900000000     0     
O        O      0.749000000000     0.019200000000     0.076900000000     0     
O        O      0.820800000000     0.179700000000     0.103200000000     0     
O        O      0.939800000000     0.299500000000     0.150500000000     0     
T        Si     0.838000000000     0.079100000000     0.069100000000     0     
T        Si     0.871000000000     0.270100000000     0.073100000000     0     


