data_zeolite

_audit_creation_method RASPA-1.0
_audit_creation_date 2021-6-7
_audit_author_name ''

_cell_length_a    28.996
_cell_length_b    13.968
_cell_length_c    12.449
_cell_angle_alpha 90
_cell_angle_beta  104.91
_cell_angle_gamma 90
_cell_volume      29233.7

_symmetry_cell_setting          monoclinic
_symmetry_space_group_name_Hall '-C 2y'
_symmetry_space_group_name_H-M  'C 1 2/m 1'
_symmetry_Int_Tables_number     12

loop_
_symmetry_equiv_pos_as_xyz
 'x,y,z'
 '-x,y,-z'
 '-x,-y,-z'
 'x,-y,z'
 'x+1/2,y+1/2,z'
 '-x+1/2,y+1/2,-z'
 '-x+1/2,-y+1/2,-z'
 'x+1/2,-y+1/2,z'

loop_
_atom_site_label
_atom_site_type_symbol
_atom_site_fract_x
_atom_site_fract_y
_atom_site_fract_z
_atom_site_charge
O        O      0.419400000000     0.679700000000     0.741100000000     0     
O        O      0.507600000000     0.629000000000     0.841500000000     0     
O        O      0.439400000000     0.500000000000     0.798800000000     0     
O        O      0.441400000000     0.631000000000     0.951400000000     0     
O        O      0.402300000000     0.680900000000     0.111200000000     0     
O        O      0.425200000000     0.500000000000     0.089000000000     0     
O        O      0.217300000000     0.000000000000     0.824400000000     0     
O        O      0.295700000000     0.906000000000     0.835500000000     0     
O        O      0.254600000000     0.000000000000     0.651200000000     0     
O        O      0.194100000000     0.404800000000     0.785300000000     0     
O        O      0.270800000000     0.500000000000     0.777600000000     0     
O        O      0.241800000000     0.500000000000     0.960800000000     0     
O        O      0.273600000000     0.500000000000     0.566400000000     0     
O        O      0.337900000000     0.406200000000     0.716100000000     0     
O        O      0.196700000000     0.405500000000     0.467000000000     0     
O        O      0.328800000000     0.725400000000     0.191900000000     0     
O        O      0.240100000000     0.769300000000     0.190200000000     0     
O        O      0.308500000000     0.783000000000     0.375100000000     0     
O        O      0.343400000000     0.737600000000     0.583700000000     0     
O        O      0.250000000000     0.750000000000     0.500000000000     0     
O        O      0.347900000000     0.767000000000     0.795100000000     0     
O        O      0.328100000000     0.775300000000     0.988100000000     0     
O        O      0.321200000000     0.594300000000     0.036400000000     0     
T        Si     0.452100000000     0.609900000000     0.833000000000     0     
T        Si     0.440100000000     0.609900000000     0.077700000000     0     
T        Si     0.295400000000     0.795400000000     0.242200000000     0     
T        Si     0.301000000000     0.794100000000     0.498200000000     0     
T        Si     0.307200000000     0.793800000000     0.856900000000     0     
T        Si     0.345300000000     0.695000000000     0.082700000000     0     
T        Si     0.362400000000     0.695700000000     0.707600000000     0     
T        Si     0.266000000000     0.000000000000     0.784700000000     0     
T        Si     0.224700000000     0.500000000000     0.827000000000     0     
T        Si     0.304600000000     0.500000000000     0.693600000000     0     
T        Si     0.227800000000     0.500000000000     0.461200000000     0     
T        Si     0.292100000000     0.500000000000     0.053600000000     0     


