data_zeolite

_audit_creation_method RASPA-1.0
_audit_creation_date 2021-6-6
_audit_author_name ''

_cell_length_a    14.355
_cell_length_b    7.166
_cell_length_c    9.08
_cell_angle_alpha 90
_cell_angle_beta  90
_cell_angle_gamma 90
_cell_volume      22417

_symmetry_cell_setting          orthorhombic
_symmetry_space_group_name_Hall '-P 2a 2a'
_symmetry_space_group_name_H-M  'P m m a'
_symmetry_Int_Tables_number     51

loop_
_symmetry_equiv_pos_as_xyz
 'x,y,z'
 '-x+1/2,-y,z'
 '-x,y,-z'
 'x+1/2,-y,-z'
 '-x,-y,-z'
 'x+1/2,y,-z'
 'x,-y,z'
 '-x+1/2,y,z'

loop_
_atom_site_label
_atom_site_type_symbol
_atom_site_fract_x
_atom_site_fract_y
_atom_site_fract_z
_atom_site_charge
O        O      0.079400000000     0.316600000000     0.216800000000     0     
O        O      0.112200000000     0.000000000000     0.352800000000     0     
O        O      0.123400000000     0.316500000000     0.497400000000     0     
O        O      0.250000000000     0.232400000000     0.297900000000     0     
O        O      0.076600000000     0.500000000000     0.737800000000     0     
O        O      0.250000000000     0.500000000000     0.647400000000     0     
O        O      0.000000000000     0.500000000000     0.000000000000     0     
T        Si     0.141600000000     0.216200000000     0.341300000000     0     
T        Si     0.142900000000     0.500000000000     0.594900000000     0     
T        Si     0.020600000000     0.500000000000     0.173900000000     0     


