data_zeolite

_audit_creation_method RASPA-1.0
_audit_creation_date 2021-6-7
_audit_author_name ''

_cell_length_a    13.058
_cell_length_b    13.058
_cell_length_c    25.919
_cell_angle_alpha 90
_cell_angle_beta  90
_cell_angle_gamma 120
_cell_volume      34446.5

_symmetry_cell_setting          hexagonal
_symmetry_space_group_name_Hall '-P 6c 2'
_symmetry_space_group_name_H-M  'P 63/m c m'
_symmetry_Int_Tables_number     193

loop_
_symmetry_equiv_pos_as_xyz
 'x,y,z'
 '-y,x-y,z'
 '-x+y,-x,z'
 '-x,-y,z+1/2'
 'y,-x+y,z+1/2'
 'x-y,x,z+1/2'
 'y,x,-z+1/2'
 'x-y,-y,-z+1/2'
 '-x,-x+y,-z+1/2'
 '-y,-x,-z'
 '-x+y,y,-z'
 'x,x-y,-z'
 '-x,-y,-z'
 'y,-x+y,-z'
 'x-y,x,-z'
 'x,y,-z+1/2'
 '-y,x-y,-z+1/2'
 '-x+y,-x,-z+1/2'
 '-y,-x,z+1/2'
 '-x+y,y,z+1/2'
 'x,x-y,z+1/2'
 'y,x,z'
 'x-y,-y,z'
 '-x,-x+y,z'

loop_
_atom_site_label
_atom_site_type_symbol
_atom_site_fract_x
_atom_site_fract_y
_atom_site_fract_z
_atom_site_charge
O        O      0.580400000000     0.438700000000     0.177600000000     0     
O        O      0.418400000000     0.221700000000     0.153500000000     0     
O        O      0.567000000000     0.361300000000     0.082800000000     0     
O        O      0.401700000000     0.401700000000     0.118300000000     0     
O        O      0.331300000000     0.000000000000     0.182200000000     0     
O        O      0.437300000000     0.171300000000     0.250000000000     0     
O        O      0.666700000000     0.333300000000     0.000000000000     0     
T        Si     0.491800000000     0.355900000000     0.133000000000     0     
T        Si     0.437000000000     0.133700000000     0.190800000000     0     
T        Si     0.666700000000     0.333300000000     0.062000000000     0     


