data_zeolite

_audit_creation_method RASPA-1.0
_audit_creation_date 2021-6-7
_audit_author_name ''

_cell_length_a    25.532
_cell_length_b    12.575
_cell_length_c    13.066
_cell_angle_alpha 90
_cell_angle_beta  90
_cell_angle_gamma 90
_cell_volume      50340.4

_symmetry_cell_setting          orthorhombic
_symmetry_space_group_name_Hall '-P 2a 2a'
_symmetry_space_group_name_H-M  'P m m a'
_symmetry_Int_Tables_number     51

loop_
_symmetry_equiv_pos_as_xyz
 'x,y,z'
 '-x+1/2,-y,z'
 '-x,y,-z'
 'x+1/2,-y,-z'
 '-x,-y,-z'
 'x+1/2,y,-z'
 'x,-y,z'
 '-x+1/2,y,z'

loop_
_atom_site_label
_atom_site_type_symbol
_atom_site_fract_x
_atom_site_fract_y
_atom_site_fract_z
_atom_site_charge
O        O      0.160300000000     0.104800000000     0.430900000000     0     
O        O      0.071900000000     0.190500000000     0.370400000000     0     
O        O      0.157900000000     0.303700000000     0.370700000000     0     
O        O      0.145200000000     0.146600000000     0.236700000000     0     
O        O      0.198200000000     0.200600000000     0.075100000000     0     
O        O      0.169400000000     0.000000000000     0.101000000000     0     
O        O      0.098900000000     0.145600000000     0.057000000000     0     
O        O      0.076000000000     0.189200000000     0.865500000000     0     
O        O      0.024700000000     0.171500000000     0.692100000000     0     
O        O      0.121700000000     0.104700000000     0.702700000000     0     
O        O      0.101600000000     0.309000000000     0.708200000000     0     
O        O      0.141600000000     0.500000000000     0.686800000000     0     
O        O      0.172900000000     0.343500000000     0.567400000000     0     
O        O      0.198600000000     0.344100000000     0.763000000000     0     
O        O      0.191200000000     0.000000000000     0.592300000000     0     
O        O      0.250000000000     0.000000000000     0.427700000000     0     
O        O      0.198100000000     0.000000000000     0.791300000000     0     
O        O      0.000000000000     0.129900000000     0.500000000000     0     
O        O      0.029800000000     0.000000000000     0.353100000000     0     
O        O      0.250000000000     0.364000000000     0.435200000000     0     
O        O      0.171800000000     0.500000000000     0.434100000000     0     
O        O      0.250000000000     0.312800000000     0.936000000000     0     
O        O      0.250000000000     0.104600000000     0.931300000000     0     
O        O      0.000000000000     0.162300000000     0.000000000000     0     
O        O      0.056400000000     0.000000000000     0.938600000000     0     
O        O      0.250000000000     0.500000000000     0.851000000000     0     
T        Si     0.134100000000     0.186900000000     0.351400000000     0     
T        Si     0.152900000000     0.122600000000     0.116700000000     0     
T        Si     0.081100000000     0.193300000000     0.742700000000     0     
T        Si     0.154000000000     0.374700000000     0.681000000000     0     
T        Si     0.190600000000     0.000000000000     0.469100000000     0     
T        Si     0.157700000000     0.000000000000     0.696700000000     0     
T        Si     0.018900000000     0.122200000000     0.383000000000     0     
T        Si     0.188000000000     0.377700000000     0.452400000000     0     
T        Si     0.250000000000     0.206900000000     0.005200000000     0     
T        Si     0.250000000000     0.000000000000     0.860800000000     0     
T        Si     0.057700000000     0.124700000000     0.965900000000     0     
T        Si     0.250000000000     0.374400000000     0.828000000000     0     


