data_zeolite

_audit_creation_method RASPA-1.0
_audit_creation_date 2021-6-7
_audit_author_name ''

_cell_length_a    16.5
_cell_length_b    20.185
_cell_length_c    5.08
_cell_angle_alpha 90
_cell_angle_beta  90
_cell_angle_gamma 90
_cell_volume      40605.8

_symmetry_cell_setting          orthorhombic
_symmetry_space_group_name_Hall 'C 2 2'
_symmetry_space_group_name_H-M  'C 2 2 2'
_symmetry_Int_Tables_number     21

loop_
_symmetry_equiv_pos_as_xyz
 'x,y,z'
 '-x,-y,z'
 '-x,y,-z'
 'x,-y,-z'
 'x+1/2,y+1/2,z'
 '-x+1/2,-y+1/2,z'
 '-x+1/2,y+1/2,-z'
 'x+1/2,-y+1/2,-z'

loop_
_atom_site_label
_atom_site_type_symbol
_atom_site_fract_x
_atom_site_fract_y
_atom_site_fract_z
_atom_site_charge
O        O      0.345800000000     0.183800000000     0.870600000000     0     
O        O      0.386900000000     0.199200000000     0.369700000000     0     
O        O      0.250000000000     0.250000000000     0.545900000000     0     
O        O      0.265000000000     0.120200000000     0.502800000000     0     
O        O      0.154600000000     0.086900000000     0.860900000000     0     
O        O      0.203200000000     0.000000000000     0.500000000000     0     
O        O      0.113100000000     0.102100000000     0.362300000000     0     
O        O      0.000000000000     0.096700000000     0.000000000000     0     
O        O      0.095900000000     0.201500000000     0.030400000000     0     
O        O      0.000000000000     0.306100000000     0.000000000000     0     
T        Si     0.312100000000     0.188400000000     0.571500000000     0     
T        Si     0.184000000000     0.077200000000     0.559100000000     0     
T        Si     0.091300000000     0.121700000000     0.061300000000     0     
T        Si     0.090700000000     0.281000000000     0.069300000000     0     


