data_zeolite

_audit_creation_method RASPA-1.0
_audit_creation_date 2021-6-7
_audit_author_name ''

_cell_length_a    14.1488
_cell_length_b    35.7082
_cell_length_c    14.077
_cell_angle_alpha 90
_cell_angle_beta  90
_cell_angle_gamma 90
_cell_volume      28448.4

_symmetry_cell_setting          orthorhombic
_symmetry_space_group_name_Hall '-C 2c 2'
_symmetry_space_group_name_H-M  'C m c m'
_symmetry_Int_Tables_number     63

loop_
_symmetry_equiv_pos_as_xyz
 'x,y,z'
 '-x,-y,z+1/2'
 '-x,y,-z+1/2'
 'x,-y,-z'
 '-x,-y,-z'
 'x,y,-z+1/2'
 'x,-y,z+1/2'
 '-x,y,z'
 'x+1/2,y+1/2,z'
 '-x+1/2,-y+1/2,z+1/2'
 '-x+1/2,y+1/2,-z+1/2'
 'x+1/2,-y+1/2,-z'
 '-x+1/2,-y+1/2,-z'
 'x+1/2,y+1/2,-z+1/2'
 'x+1/2,-y+1/2,z+1/2'
 '-x+1/2,y+1/2,z'

loop_
_atom_site_label
_atom_site_type_symbol
_atom_site_fract_x
_atom_site_fract_y
_atom_site_fract_z
_atom_site_charge
O        O      0.000000000000     0.719800000000     0.156900000000     0     
O        O      0.407400000000     0.272300000000     0.250000000000     0     
O        O      0.220900000000     0.372800000000     0.250000000000     0     
O        O      0.168800000000     0.345200000000     0.084000000000     0     
O        O      0.296400000000     0.397900000000     0.091100000000     0     
O        O      0.338300000000     0.330600000000     0.156800000000     0     
O        O      0.142500000000     0.048400000000     0.250000000000     0     
O        O      0.173300000000     0.082500000000     0.086900000000     0     
O        O      0.122900000000     0.012200000000     0.088200000000     0     
O        O      0.000000000000     0.064400000000     0.136500000000     0     
O        O      0.000000000000     0.657100000000     0.250000000000     0     
O        O      0.592700000000     0.161600000000     0.087400000000     0     
O        O      0.000000000000     0.835000000000     0.250000000000     0     
O        O      0.253900000000     0.035100000000     0.970800000000     0     
O        O      0.346000000000     0.096100000000     0.025900000000     0     
O        O      0.000000000000     0.373200000000     0.045300000000     0     
T        Si     0.256000000000     0.361500000000     0.144900000000     0     
T        Si     0.109100000000     0.051900000000     0.141100000000     0     
T        Si     0.244500000000     0.078800000000     0.998000000000     0     
T        Si     0.104400000000     0.365000000000     0.004300000000     0     
T        Si     0.395200000000     0.317200000000     0.250000000000     0     
T        Si     0.000000000000     0.674900000000     0.144700000000     0     
T        Si     0.188600000000     0.000000000000     0.000000000000     0     
T        Si     0.000000000000     0.746100000000     0.250000000000     0     


