data_zeolite

_audit_creation_method RASPA-1.0
_audit_creation_date 2021-6-7
_audit_author_name ''

_cell_length_a    21.6651
_cell_length_b    18.2308
_cell_length_c    12.4847
_cell_angle_alpha 90
_cell_angle_beta  124.74
_cell_angle_gamma 90
_cell_volume      48625.6

_symmetry_cell_setting          monoclinic
_symmetry_space_group_name_Hall '-C 2y'
_symmetry_space_group_name_H-M  'C 1 2/m 1'
_symmetry_Int_Tables_number     12

loop_
_symmetry_equiv_pos_as_xyz
 'x,y,z'
 '-x,y,-z'
 '-x,-y,-z'
 'x,-y,z'
 'x+1/2,y+1/2,z'
 '-x+1/2,y+1/2,-z'
 '-x+1/2,-y+1/2,-z'
 'x+1/2,-y+1/2,z'

loop_
_atom_site_label
_atom_site_type_symbol
_atom_site_fract_x
_atom_site_fract_y
_atom_site_fract_z
_atom_site_charge
T        Si     0.173440000000     0.160160000000     0.464350000000     0     
T        Si     0.548670000000     0.753920000000     0.446870000000     0     
T        Si     0.706270000000     0.746460000000     0.291500000000     0     
T        Si     0.565240000000     0.848960000000     0.783590000000     0     
T        Si     0.585640000000     0.846750000000     0.053300000000     0     
T        Si     0.667460000000     0.844160000000     0.685450000000     0     
T        Si     0.670490000000     0.000000000000     0.595250000000     0     
T        Si     0.624300000000     0.000000000000     0.201320000000     0     
T        Si     0.230210000000     0.000000000000     0.521440000000     0     
T        Si     0.524940000000     0.000000000000     0.317910000000     0     
O        O      0.598140000000     0.687210000000     0.449320000000     0     
O        O      0.494360000000     0.784740000000     0.300340000000     0     
O        O      0.603500000000     0.819250000000     0.538700000000     0     
O        O      0.594580000000     0.841770000000     0.934080000000     0     
O        O      0.527110000000     0.927920000000     0.727070000000     0     
O        O      0.636120000000     0.838300000000     0.775040000000     0     
O        O      0.607610000000     0.927980000000     0.114220000000     0     
O        O      0.638840000000     0.786920000000     0.162610000000     0     
O        O      0.689620000000     0.928260000000     0.684190000000     0     
O        O      0.740490000000     0.793180000000     0.742560000000     0     
O        O      0.672880000000     0.686800000000     0.340820000000     0     
O        O      0.177960000000     0.072020000000     0.474230000000     0     
O        O      0.245880000000     0.193620000000     0.595620000000     0     
O        O      0.500000000000     0.726810000000     0.500000000000     0     
O        O      0.500000000000     0.828810000000     0.000000000000     0     
O        O      0.583500000000     0.000000000000     0.474150000000     0     
O        O      0.570990000000     0.000000000000     0.252570000000     0     
O        O      0.723390000000     0.000000000000     0.543190000000     0     
O        O      0.711340000000     0.000000000000     0.322380000000     0     


