data_zeolite

_audit_creation_method RASPA-1.0
_audit_creation_date 2021-6-7
_audit_author_name ''

_cell_length_a    9.807
_cell_length_b    23.646
_cell_length_c    20.242
_cell_angle_alpha 90
_cell_angle_beta  90
_cell_angle_gamma 90
_cell_volume      56328.5

_symmetry_cell_setting          orthorhombic
_symmetry_space_group_name_Hall '-C 2c 2'
_symmetry_space_group_name_H-M  'C m c m'
_symmetry_Int_Tables_number     63

loop_
_symmetry_equiv_pos_as_xyz
 'x,y,z'
 '-x,-y,z+1/2'
 '-x,y,-z+1/2'
 'x,-y,-z'
 '-x,-y,-z'
 'x,y,-z+1/2'
 'x,-y,z+1/2'
 '-x,y,z'
 'x+1/2,y+1/2,z'
 '-x+1/2,-y+1/2,z+1/2'
 '-x+1/2,y+1/2,-z+1/2'
 'x+1/2,-y+1/2,-z'
 '-x+1/2,-y+1/2,-z'
 'x+1/2,y+1/2,-z+1/2'
 'x+1/2,-y+1/2,z+1/2'
 '-x+1/2,y+1/2,z'

loop_
_atom_site_label
_atom_site_type_symbol
_atom_site_fract_x
_atom_site_fract_y
_atom_site_fract_z
_atom_site_charge
O        O      0.634200000000     0.360700000000     0.345000000000     0     
O        O      0.865900000000     0.304900000000     0.343000000000     0     
O        O      0.865900000000     0.416200000000     0.343000000000     0     
O        O      0.793100000000     0.360800000000     0.449700000000     0     
O        O      0.634000000000     0.639100000000     0.445600000000     0     
O        O      0.865800000000     0.583000000000     0.443600000000     0     
O        O      0.865900000000     0.694100000000     0.443000000000     0     
O        O      0.000000000000     0.470200000000     0.250000000000     0     
O        O      0.000000000000     0.509700000000     0.370800000000     0     
O        O      0.000000000000     0.500000000000     0.500000000000     0     
O        O      0.000000000000     0.767000000000     0.370000000000     0     
O        O      0.000000000000     0.777100000000     0.499500000000     0     
O        O      0.000000000000     0.250800000000     0.250000000000     0     
O        O      0.000000000000     0.211600000000     0.371200000000     0     
O        O      0.000000000000     0.808600000000     0.250000000000     0     
T        Si     0.789900000000     0.360600000000     0.370300000000     0     
T        Si     0.789800000000     0.638700000000     0.470800000000     0     
T        Si     0.000000000000     0.452900000000     0.326900000000     0     
T        Si     0.000000000000     0.544000000000     0.439500000000     0     
T        Si     0.000000000000     0.733200000000     0.439000000000     0     
T        Si     0.000000000000     0.268200000000     0.326900000000     0     
T        Si     0.000000000000     0.178300000000     0.440500000000     0     
T        Si     0.000000000000     0.824500000000     0.327300000000     0     


