data_zeolite

_audit_creation_method RASPA-1.0
_audit_creation_date 2021-6-7
_audit_author_name ''

_cell_length_a    12.7178
_cell_length_b    21.9893
_cell_length_c    38.7639
_cell_angle_alpha 90
_cell_angle_beta  90
_cell_angle_gamma 90
_cell_volume      65043

_symmetry_cell_setting          orthorhombic
_symmetry_space_group_name_Hall 'A 2 -2'
_symmetry_space_group_name_H-M  'A m m 2'
_symmetry_Int_Tables_number     38

loop_
_symmetry_equiv_pos_as_xyz
 'x,y,z'
 '-x,-y,z'
 'x,-y,z'
 '-x,y,z'
 'x,y+1/2,z+1/2'
 '-x,-y+1/2,z+1/2'
 'x,-y+1/2,z+1/2'
 '-x,y+1/2,z+1/2'

loop_
_atom_site_label
_atom_site_type_symbol
_atom_site_fract_x
_atom_site_fract_y
_atom_site_fract_z
_atom_site_charge
T        Si     0.190010000000     0.355230000000     0.839600000000     0     
T        Si     0.191020000000     0.356230000000     0.967370000000     0     
T        Si     0.379790000000     0.430390000000     0.863240000000     0     
T        Si     0.123710000000     0.277440000000     0.903300000000     0     
T        Si     0.122850000000     0.269180000000     0.781510000000     0     
T        Si     0.379770000000     0.430700000000     0.943550000000     0     
T        Si     0.119080000000     0.266480000000     0.022720000000     0     
T        Si     0.119730000000     0.143070000000     0.926370000000     0     
T        Si     0.195470000000     0.136400000000     0.797790000000     0     
T        Si     0.122950000000     0.264940000000     0.700060000000     0     
T        Si     0.197640000000     0.137070000000     0.000600000000     0     
T        Si     0.119610000000     0.260520000000     0.104360000000     0     
T        Si     0.122210000000     0.068620000000     0.860910000000     0     
T        Si     0.380160000000     0.068270000000     0.762410000000     0     
T        Si     0.195310000000     0.152600000000     0.660770000000     0     
T        Si     0.190860000000     0.352820000000     0.641290000000     0     
T        Si     0.378860000000     0.069030000000     0.038790000000     0     
T        Si     0.380160000000     0.068830000000     0.680990000000     0     
T        Si     0.379260000000     0.429860000000     0.618610000000     0     
T        Si     0.000000000000     0.427460000000     0.866810000000     0     
T        Si     0.000000000000     0.427570000000     0.941920000000     0     
T        Si     0.000000000000     0.069330000000     0.762580000000     0     
T        Si     0.000000000000     0.073070000000     0.035640000000     0     
T        Si     0.000000000000     0.069310000000     0.679630000000     0     
T        Si     0.000000000000     0.426940000000     0.613740000000     0     
O        O      0.171690000000     0.326450000000     0.801870000000     0     
O        O      0.103500000000     0.407570000000     0.845790000000     0     
O        O      0.305240000000     0.385440000000     0.841400000000     0     
O        O      0.177530000000     0.303590000000     0.868750000000     0     
O        O      0.306480000000     0.386160000000     0.966080000000     0     
O        O      0.103630000000     0.408650000000     0.963150000000     0     
O        O      0.174490000000     0.323540000000     0.004130000000     0     
O        O      0.178610000000     0.307830000000     0.936520000000     0     
O        O      0.344050000000     0.500000000000     0.857820000000     0     
O        O      0.500000000000     0.422520000000     0.850950000000     0     
O        O      0.370760000000     0.412660000000     0.903430000000     0     
O        O      0.141660000000     0.205030000000     0.905460000000     0     
O        O      0.000000000000     0.292680000000     0.903210000000     0     
O        O      0.183420000000     0.208980000000     0.794290000000     0     
O        O      0.137420000000     0.278390000000     0.740610000000     0     
O        O      0.000000000000     0.263080000000     0.790790000000     0     
O        O      0.500000000000     0.423950000000     0.955970000000     0     
O        O      0.342090000000     0.500000000000     0.948780000000     0     
O        O      0.118760000000     0.276300000000     0.063840000000     0     
O        O      0.000000000000     0.259580000000     0.009170000000     0     
O        O      0.184830000000     0.205980000000     0.013900000000     0     
O        O      0.136700000000     0.085920000000     0.900990000000     0     
O        O      0.000000000000     0.143170000000     0.939890000000     0     
O        O      0.197020000000     0.136920000000     0.959070000000     0     
O        O      0.188070000000     0.115720000000     0.837560000000     0     
O        O      0.103660000000     0.103670000000     0.776140000000     0     
O        O      0.308470000000     0.116520000000     0.782890000000     0     
O        O      0.185920000000     0.203650000000     0.690390000000     0     
O        O      0.169680000000     0.320880000000     0.678030000000     0     
O        O      0.000000000000     0.256450000000     0.691430000000     0     
O        O      0.309030000000     0.112200000000     0.014350000000     0     
O        O      0.103340000000     0.096080000000     0.015550000000     0     
O        O      0.181740000000     0.197930000000     0.111460000000     0     
O        O      0.000000000000     0.255540000000     0.117760000000     0     
O        O      0.180120000000     0.314860000000     0.123890000000     0     
O        O      0.000000000000     0.073470000000     0.850500000000     0     
O        O      0.162040000000     0.000000000000     0.854500000000     0     
O        O      0.500000000000     0.074340000000     0.775370000000     0     
O        O      0.374630000000     0.082450000000     0.721740000000     0     
O        O      0.339590000000     0.000000000000     0.769460000000     0     
O        O      0.306590000000     0.117760000000     0.661700000000     0     
O        O      0.103410000000     0.103000000000     0.665380000000     0     
O        O      0.304280000000     0.385410000000     0.640690000000     0     
O        O      0.102890000000     0.403950000000     0.634110000000     0     
O        O      0.338780000000     0.000000000000     0.034440000000     0     
O        O      0.500000000000     0.073520000000     0.027060000000     0     
O        O      0.367740000000     0.088740000000     0.078600000000     0     
O        O      0.342770000000     0.000000000000     0.673700000000     0     
O        O      0.500000000000     0.076740000000     0.668270000000     0     
O        O      0.500000000000     0.420990000000     0.630160000000     0     
O        O      0.346180000000     0.500000000000     0.623750000000     0     
O        O      0.000000000000     0.500000000000     0.871910000000     0     
O        O      0.000000000000     0.396040000000     0.904380000000     0     
O        O      0.000000000000     0.500000000000     0.936370000000     0     
O        O      0.000000000000     0.000000000000     0.775950000000     0     
O        O      0.000000000000     0.070100000000     0.721090000000     0     
O        O      0.000000000000     0.000000000000     0.036380000000     0     
O        O      0.000000000000     0.098140000000     0.074690000000     0     
O        O      0.000000000000     0.000000000000     0.666220000000     0     
O        O      0.000000000000     0.500000000000     0.613000000000     0     


