data_zeolite

_audit_creation_method RASPA-1.0
_audit_creation_date 2021-6-7
_audit_author_name ''

_cell_length_a    18.7661
_cell_length_b    18.7661
_cell_length_c    11.6939
_cell_angle_alpha 90
_cell_angle_beta  90
_cell_angle_gamma 90
_cell_volume      49418.6

_symmetry_cell_setting          tetragonal
_symmetry_space_group_name_Hall '-P 4n 2n'
_symmetry_space_group_name_H-M  'P 42/m n m'
_symmetry_Int_Tables_number     136

loop_
_symmetry_equiv_pos_as_xyz
 'x,y,z'
 '-x,-y,z'
 '-y+1/2,x+1/2,z+1/2'
 'y+1/2,-x+1/2,z+1/2'
 '-x+1/2,y+1/2,-z+1/2'
 'x+1/2,-y+1/2,-z+1/2'
 'y,x,-z'
 '-y,-x,-z'
 '-x,-y,-z'
 'x,y,-z'
 'y+1/2,-x+1/2,-z+1/2'
 '-y+1/2,x+1/2,-z+1/2'
 'x+1/2,-y+1/2,z+1/2'
 '-x+1/2,y+1/2,z+1/2'
 '-y,-x,z'
 'y,x,z'

loop_
_atom_site_label
_atom_site_type_symbol
_atom_site_fract_x
_atom_site_fract_y
_atom_site_fract_z
_atom_site_charge
T        Si     0.198750000000     0.012000000000     0.265960000000     0     
T        Si     0.260780000000     0.143720000000     0.369170000000     0     
T        Si     0.374790000000     0.258370000000     0.368730000000     0     
T        Si     0.057360000000     0.057360000000     0.137410000000     0     
T        Si     0.116980000000     0.003930000000     0.500000000000     0     
O        O      0.000000000000     0.000000000000     0.182510000000     0     
O        O      0.057260000000     0.057260000000     0.000000000000     0     
O        O      0.136110000000     0.037190000000     0.181210000000     0     
O        O      0.239090000000     0.944180000000     0.212070000000     0     
O        O      0.164840000000     0.990980000000     0.387770000000     0     
O        O      0.053130000000     0.946870000000     0.500000000000     0     
O        O      0.082680000000     0.082680000000     0.500000000000     0     
O        O      0.255060000000     0.075610000000     0.285850000000     0     
O        O      0.199530000000     0.199530000000     0.333790000000     0     
O        O      0.249710000000     0.119380000000     0.500000000000     0     
O        O      0.337310000000     0.181580000000     0.355650000000     0     
O        O      0.319800000000     0.319800000000     0.330730000000     0     
O        O      0.397760000000     0.270320000000     0.500000000000     0     


