data_zeolite

_audit_creation_method RASPA-1.0
_audit_creation_date 2021-6-7
_audit_author_name ''

_cell_length_a    11.887
_cell_length_b    11.887
_cell_length_c    29.915
_cell_angle_alpha 90
_cell_angle_beta  90
_cell_angle_gamma 120
_cell_volume      32946.3

_symmetry_cell_setting          hexagonal
_symmetry_space_group_name_Hall 'P 61 2 (0 0 5)'
_symmetry_space_group_name_H-M  'P 61 2 2'
_symmetry_Int_Tables_number     178

loop_
_symmetry_equiv_pos_as_xyz
 'x,y,z'
 '-y,x-y,z+1/3'
 '-x+y,-x,z+2/3'
 '-x,-y,z+1/2'
 'y,-x+y,z+5/6'
 'x-y,x,z+1/6'
 'y,x,-z+1/3'
 'x-y,-y,-z'
 '-x,-x+y,-z+2/3'
 '-y,-x,-z+5/6'
 '-x+y,y,-z+1/2'
 'x,x-y,-z+1/6'

loop_
_atom_site_label
_atom_site_type_symbol
_atom_site_fract_x
_atom_site_fract_y
_atom_site_fract_z
_atom_site_charge
O        O      0.912800000000     0.000000000000     0.000000000000     0     
O        O      0.332800000000     0.572600000000     0.333700000000     0     
O        O      0.121600000000     0.212900000000     0.972800000000     0     
O        O      0.934400000000     0.065600000000     0.916700000000     0     
O        O      0.899800000000     0.208100000000     0.976800000000     0     
O        O      0.640200000000     0.320100000000     0.083300000000     0     
O        O      0.375800000000     0.344600000000     0.966400000000     0     
O        O      0.779700000000     0.316900000000     0.015400000000     0     
O        O      0.775200000000     0.531000000000     0.034800000000     0     
O        O      0.231100000000     0.324600000000     0.897100000000     0     
O        O      0.593700000000     0.559400000000     0.985800000000     0     
O        O      0.583700000000     0.416300000000     0.916700000000     0     
T        Si     0.691700000000     0.374800000000     0.033800000000     0     
T        Si     0.531800000000     0.413800000000     0.966700000000     0     
T        Si     0.299700000000     0.394200000000     0.850800000000     0     
T        Si     0.243200000000     0.338000000000     0.950600000000     0     
T        Si     0.967000000000     0.122100000000     0.966600000000     0     


