data_zeolite

_audit_creation_method RASPA-1.0
_audit_creation_date 2021-6-6
_audit_author_name ''

_cell_length_a    18.89
_cell_length_b    23.365
_cell_length_c    8.469
_cell_angle_alpha 90
_cell_angle_beta  90
_cell_angle_gamma 90
_cell_volume      59806.7

_symmetry_cell_setting          orthorhombic
_symmetry_space_group_name_Hall '-C 2c 2'
_symmetry_space_group_name_H-M  'C m c m'
_symmetry_Int_Tables_number     63

loop_
_symmetry_equiv_pos_as_xyz
 'x,y,z'
 '-x,-y,z+1/2'
 '-x,y,-z+1/2'
 'x,-y,-z'
 '-x,-y,-z'
 'x,y,-z+1/2'
 'x,-y,z+1/2'
 '-x,y,z'
 'x+1/2,y+1/2,z'
 '-x+1/2,-y+1/2,z+1/2'
 '-x+1/2,y+1/2,-z+1/2'
 'x+1/2,-y+1/2,-z'
 '-x+1/2,-y+1/2,-z'
 'x+1/2,y+1/2,-z+1/2'
 'x+1/2,-y+1/2,z+1/2'
 '-x+1/2,y+1/2,z'

loop_
_atom_site_label
_atom_site_type_symbol
_atom_site_fract_x
_atom_site_fract_y
_atom_site_fract_z
_atom_site_charge
O        O      0.500000000000     0.313300000000     0.450600000000     0     
O        O      0.569600000000     0.221700000000     0.541000000000     0     
O        O      0.500000000000     0.282900000000     0.750000000000     0     
O        O      0.069500000000     0.092600000000     0.481500000000     0     
O        O      0.207000000000     0.101300000000     0.521900000000     0     
O        O      0.147900000000     0.000000000000     0.500000000000     0     
O        O      0.156500000000     0.066300000000     0.250000000000     0     
O        O      0.884000000000     0.729700000000     0.250000000000     0     
O        O      0.822700000000     0.788700000000     0.476100000000     0     
O        O      0.807000000000     0.676900000000     0.463900000000     0     
O        O      0.755500000000     0.666900000000     0.750000000000     0     
O        O      0.000000000000     0.899400000000     0.250000000000     0     
T        Si     0.860800000000     0.729100000000     0.432800000000     0     
T        Si     0.736500000000     0.664000000000     0.565000000000     0     
T        Si     0.145100000000     0.065000000000     0.438100000000     0     
T        Si     0.500000000000     0.259900000000     0.570700000000     0     
T        Si     0.000000000000     0.882000000000     0.433800000000     0     


