data_zeolite

_audit_creation_method RASPA-1.0
_audit_creation_date 2021-6-8
_audit_author_name ''

_cell_length_a    11.673
_cell_length_b    21.969
_cell_length_c    25.17
_cell_angle_alpha 90
_cell_angle_beta  90
_cell_angle_gamma 90
_cell_volume      77456.4

_symmetry_cell_setting          orthorhombic
_symmetry_space_group_name_Hall '-C 2c 2'
_symmetry_space_group_name_H-M  'C m c m'
_symmetry_Int_Tables_number     63

loop_
_symmetry_equiv_pos_as_xyz
 'x,y,z'
 '-x,-y,z+1/2'
 '-x,y,-z+1/2'
 'x,-y,-z'
 '-x,-y,-z'
 'x,y,-z+1/2'
 'x,-y,z+1/2'
 '-x,y,z'
 'x+1/2,y+1/2,z'
 '-x+1/2,-y+1/2,z+1/2'
 '-x+1/2,y+1/2,-z+1/2'
 'x+1/2,-y+1/2,-z'
 '-x+1/2,-y+1/2,-z'
 'x+1/2,y+1/2,-z+1/2'
 'x+1/2,-y+1/2,z+1/2'
 '-x+1/2,y+1/2,z'

loop_
_atom_site_label
_atom_site_type_symbol
_atom_site_fract_x
_atom_site_fract_y
_atom_site_fract_z
_atom_site_charge
O        O      0.305800000000     0.120100000000     0.198000000000     0     
O        O      0.112700000000     0.076900000000     0.159000000000     0     
O        O      0.282100000000     0.112500000000     0.095600000000     0     
O        O      0.161700000000     0.192900000000     0.150300000000     0     
O        O      0.289800000000     0.113000000000     0.597700000000     0     
O        O      0.305400000000     0.078000000000     0.697600000000     0     
O        O      0.112100000000     0.120800000000     0.659800000000     0     
O        O      0.285900000000     0.194500000000     0.674800000000     0     
O        O      0.150300000000     0.229500000000     0.250000000000     0     
O        O      0.000000000000     0.268800000000     0.180200000000     0     
O        O      0.000000000000     0.409600000000     0.570600000000     0     
O        O      0.147600000000     0.499400000000     0.579900000000     0     
O        O      0.164800000000     0.423500000000     0.500000000000     0     
O        O      0.000000000000     0.411000000000     0.069900000000     0     
O        O      0.000000000000     0.384700000000     0.750000000000     0     
O        O      0.137800000000     0.479500000000     0.750000000000     0     
O        O      0.000000000000     0.425700000000     0.250000000000     0     
O        O      0.000000000000     0.978900000000     0.186100000000     0     
O        O      0.000000000000     0.073500000000     0.250000000000     0     
O        O      0.000000000000     0.115900000000     0.750000000000     0     
T        Si     0.214600000000     0.125300000000     0.150200000000     0     
T        Si     0.249400000000     0.126700000000     0.657600000000     0     
T        Si     0.131500000000     0.249100000000     0.189000000000     0     
T        Si     0.131400000000     0.429500000000     0.561800000000     0     
T        Si     0.131500000000     0.430900000000     0.061700000000     0     
T        Si     0.131700000000     0.406400000000     0.750000000000     0     
T        Si     0.131700000000     0.447400000000     0.250000000000     0     
T        Si     0.000000000000     0.052100000000     0.188800000000     0     
T        Si     0.000000000000     0.094200000000     0.688900000000     0     


