data_zeolite

_audit_creation_method RASPA-1.0
_audit_creation_date 2021-6-6
_audit_author_name ''

_cell_length_a    17.215
_cell_length_b    17.215
_cell_length_c    28.082
_cell_angle_alpha 90
_cell_angle_beta  90
_cell_angle_gamma 120
_cell_volume      28829.2

_symmetry_cell_setting          hexagonal
_symmetry_space_group_name_Hall '-P 6c 2c'
_symmetry_space_group_name_H-M  'P 63/m m c'
_symmetry_Int_Tables_number     194

loop_
_symmetry_equiv_pos_as_xyz
 'x,y,z'
 '-y,x-y,z'
 '-x+y,-x,z'
 '-x,-y,z+1/2'
 'y,-x+y,z+1/2'
 'x-y,x,z+1/2'
 'y,x,-z'
 'x-y,-y,-z'
 '-x,-x+y,-z'
 '-y,-x,-z+1/2'
 '-x+y,y,-z+1/2'
 'x,x-y,-z+1/2'
 '-x,-y,-z'
 'y,-x+y,-z'
 'x-y,x,-z'
 'x,y,-z+1/2'
 '-y,x-y,-z+1/2'
 '-x+y,-x,-z+1/2'
 '-y,-x,z'
 '-x+y,y,z'
 'x,x-y,z'
 'y,x,z+1/2'
 'x-y,-y,z+1/2'
 '-x,-x+y,z+1/2'

loop_
_atom_site_label
_atom_site_type_symbol
_atom_site_fract_x
_atom_site_fract_y
_atom_site_fract_z
_atom_site_charge
O        O      0.057400000000     0.528700000000     0.093100000000     0     
O        O      0.070600000000     0.431000000000     0.161100000000     0     
O        O      0.930300000000     0.361000000000     0.104400000000     0     
O        O      0.088200000000     0.397800000000     0.071600000000     0     
O        O      0.000000000000     0.291400000000     0.000000000000     0     
O        O      0.130000000000     0.456000000000     0.983600000000     0     
O        O      0.167800000000     0.335600000000     0.016200000000     0     
O        O      0.236800000000     0.473600000000     0.912400000000     0     
O        O      0.186100000000     0.593100000000     0.925100000000     0     
O        O      0.186800000000     0.593400000000     0.190500000000     0     
O        O      0.236100000000     0.472300000000     0.181000000000     0     
O        O      0.126400000000     0.457600000000     0.250000000000     0     
T        Si     0.036600000000     0.429600000000     0.107500000000     0     
T        Si     0.096400000000     0.370100000000     0.017900000000     0     
T        Si     0.155600000000     0.488400000000     0.929200000000     0     
T        Si     0.155000000000     0.488500000000     0.195700000000     0     


