data_zeolite

_audit_creation_method RASPA-1.0
_audit_creation_date 2021-6-6
_audit_author_name ''

_cell_length_a    5.256
_cell_length_b    14.132
_cell_length_c    17.227
_cell_angle_alpha 90
_cell_angle_beta  90
_cell_angle_gamma 90
_cell_volume      25591.7

_symmetry_cell_setting          orthorhombic
_symmetry_space_group_name_Hall '-C 2c 2'
_symmetry_space_group_name_H-M  'C m c m'
_symmetry_Int_Tables_number     63

loop_
_symmetry_equiv_pos_as_xyz
 'x,y,z'
 '-x,-y,z+1/2'
 '-x,y,-z+1/2'
 'x,-y,-z'
 '-x,-y,-z'
 'x,y,-z+1/2'
 'x,-y,z+1/2'
 '-x,y,z'
 'x+1/2,y+1/2,z'
 '-x+1/2,-y+1/2,z+1/2'
 '-x+1/2,y+1/2,-z+1/2'
 'x+1/2,-y+1/2,-z'
 '-x+1/2,-y+1/2,-z'
 'x+1/2,y+1/2,-z+1/2'
 'x+1/2,-y+1/2,z+1/2'
 '-x+1/2,y+1/2,z'

loop_
_atom_site_label
_atom_site_type_symbol
_atom_site_fract_x
_atom_site_fract_y
_atom_site_fract_z
_atom_site_charge
O        O      0.000000000000     0.173000000000     0.115900000000     0     
O        O      0.250000000000     0.250000000000     0.000000000000     0     
O        O      0.000000000000     0.357600000000     0.098100000000     0     
O        O      0.750000000000     0.013100000000     0.131800000000     0     
O        O      0.000000000000     0.085100000000     0.250000000000     0     
O        O      0.500000000000     0.000000000000     0.000000000000     0     
T        Si     0.000000000000     0.257600000000     0.053400000000     0     
T        Si     0.000000000000     0.070900000000     0.157400000000     0     
T        Si     0.500000000000     0.971100000000     0.090300000000     0     


