data_zeolite

_audit_creation_method RASPA-1.0
_audit_creation_date 2021-6-7
_audit_author_name ''

_cell_length_a    14.296
_cell_length_b    56.788
_cell_length_c    20.29
_cell_angle_alpha 90
_cell_angle_beta  90
_cell_angle_gamma 90
_cell_volume      65889

_symmetry_cell_setting          orthorhombic
_symmetry_space_group_name_Hall '-C 2c 2'
_symmetry_space_group_name_H-M  'C m c m'
_symmetry_Int_Tables_number     63

loop_
_symmetry_equiv_pos_as_xyz
 'x,y,z'
 '-x,-y,z+1/2'
 '-x,y,-z+1/2'
 'x,-y,-z'
 '-x,-y,-z'
 'x,y,-z+1/2'
 'x,-y,z+1/2'
 '-x,y,z'
 'x+1/2,y+1/2,z'
 '-x+1/2,-y+1/2,z+1/2'
 '-x+1/2,y+1/2,-z+1/2'
 'x+1/2,-y+1/2,-z'
 '-x+1/2,-y+1/2,-z'
 'x+1/2,y+1/2,-z+1/2'
 'x+1/2,-y+1/2,z+1/2'
 '-x+1/2,y+1/2,z'

loop_
_atom_site_label
_atom_site_type_symbol
_atom_site_fract_x
_atom_site_fract_y
_atom_site_fract_z
_atom_site_charge
O        O      0.592200000000     0.434500000000     0.555600000000     0     
O        O      0.500000000000     0.400000000000     0.498400000000     0     
O        O      0.500000000000     0.404100000000     0.627700000000     0     
O        O      0.408100000000     0.365600000000     0.660100000000     0     
O        O      0.500000000000     0.389500000000     0.750000000000     0     
O        O      0.500000000000     0.283700000000     0.750000000000     0     
O        O      0.592100000000     0.306800000000     0.658700000000     0     
O        O      0.500000000000     0.268200000000     0.628300000000     0     
O        O      0.500000000000     0.272700000000     0.000700000000     0     
O        O      0.591500000000     0.237800000000     0.945100000000     0     
O        O      0.500000000000     0.071900000000     0.631700000000     0     
O        O      0.408100000000     0.110600000000     0.663600000000     0     
O        O      0.500000000000     0.108600000000     0.552400000000     0     
O        O      0.500000000000     0.035800000000     0.550000000000     0     
O        O      0.591500000000     0.033100000000     0.661900000000     0     
O        O      0.227100000000     0.034600000000     0.048300000000     0     
O        O      0.196900000000     0.063700000000     0.949400000000     0     
O        O      0.268200000000     0.079800000000     0.059700000000     0     
O        O      0.232900000000     0.163500000000     0.148000000000     0     
O        O      0.258700000000     0.117900000000     0.132000000000     0     
O        O      0.225200000000     0.134800000000     0.250000000000     0     
O        O      0.266600000000     0.208400000000     0.161100000000     0     
O        O      0.193800000000     0.192300000000     0.050900000000     0     
O        O      0.235400000000     0.291200000000     0.058800000000     0     
O        O      0.250000000000     0.250000000000     0.000000000000     0     
O        O      0.236700000000     0.252500000000     0.129100000000     0     
O        O      0.227300000000     0.385100000000     0.250000000000     0     
O        O      0.257100000000     0.373500000000     0.125800000000     0     
O        O      0.234400000000     0.418100000000     0.159500000000     0     
O        O      0.273300000000     0.463500000000     0.153500000000     0     
O        O      0.192900000000     0.504000000000     0.128600000000     0     
O        O      0.197800000000     0.487900000000     0.250000000000     0     
O        O      0.408400000000     0.034600000000     0.063400000000     0     
O        O      0.328400000000     0.000000000000     0.000000000000     0     
O        O      0.407400000000     0.110600000000     0.059500000000     0     
O        O      0.247100000000     0.120900000000     0.002800000000     0     
O        O      0.408000000000     0.238300000000     0.156200000000     0     
O        O      0.282300000000     0.241800000000     0.250000000000     0     
O        O      0.407900000000     0.307500000000     0.056700000000     0     
O        O      0.264400000000     0.336500000000     0.046900000000     0     
O        O      0.407600000000     0.364600000000     0.054200000000     0     
O        O      0.408300000000     0.432700000000     0.156600000000     0     
O        O      0.500000000000     0.072500000000     0.028600000000     0     
O        O      0.500000000000     0.260400000000     0.250000000000     0     
O        O      0.500000000000     0.277200000000     0.129700000000     0     
O        O      0.500000000000     0.393600000000     0.130000000000     0     
O        O      0.500000000000     0.410300000000     0.250000000000     0     
T        Si     0.196400000000     0.061000000000     0.028300000000     0     
T        Si     0.195800000000     0.189400000000     0.129700000000     0     
T        Si     0.203600000000     0.264000000000     0.060500000000     0     
T        Si     0.317000000000     0.018100000000     0.060300000000     0     
T        Si     0.303800000000     0.310800000000     0.027900000000     0     
T        Si     0.295100000000     0.363600000000     0.056500000000     0     
T        Si     0.304200000000     0.437600000000     0.129700000000     0     
T        Si     0.203200000000     0.391300000000     0.174400000000     0     
T        Si     0.188400000000     0.480700000000     0.173600000000     0     
T        Si     0.295600000000     0.107200000000     0.063300000000     0     
T        Si     0.298900000000     0.235100000000     0.173800000000     0     
T        Si     0.202300000000     0.137600000000     0.172800000000     0     
T        Si     0.500000000000     0.418300000000     0.559000000000     0     
T        Si     0.500000000000     0.254200000000     0.940700000000     0     
T        Si     0.500000000000     0.291200000000     0.439200000000     0     
T        Si     0.500000000000     0.380700000000     0.059500000000     0     
T        Si     0.500000000000     0.417400000000     0.173300000000     0     
T        Si     0.500000000000     0.291400000000     0.673700000000     0     
T        Si     0.500000000000     0.381200000000     0.674200000000     0     
T        Si     0.500000000000     0.100200000000     0.628200000000     0     
T        Si     0.500000000000     0.043600000000     0.626200000000     0     
T        Si     0.500000000000     0.044200000000     0.025800000000     0     
T        Si     0.500000000000     0.100700000000     0.023800000000     0     
T        Si     0.500000000000     0.253500000000     0.173100000000     0     


