data_zeolite

_audit_creation_method RASPA-1.0
_audit_creation_date 2021-6-6
_audit_author_name ''

_cell_length_a    18.531
_cell_length_b    13.355
_cell_length_c    9.636
_cell_angle_alpha 90
_cell_angle_beta  90
_cell_angle_gamma 90
_cell_volume      28616.8

_symmetry_cell_setting          orthorhombic
_symmetry_space_group_name_Hall '-C 2ac 2'
_symmetry_space_group_name_H-M  'C m c a'
_symmetry_Int_Tables_number     64

loop_
_symmetry_equiv_pos_as_xyz
 'x,y,z'
 '-x,-y+1/2,z+1/2'
 '-x,y+1/2,-z+1/2'
 'x,-y,-z'
 '-x,-y,-z'
 'x,y+1/2,-z+1/2'
 'x,-y+1/2,z+1/2'
 '-x,y,z'
 'x+1/2,y+1/2,z'
 '-x+1/2,-y,z+1/2'
 '-x+1/2,y,-z+1/2'
 'x+1/2,-y+1/2,-z'
 '-x+1/2,-y+1/2,-z'
 'x+1/2,y,-z+1/2'
 'x+1/2,-y,z+1/2'
 '-x+1/2,y+1/2,z'

loop_
_atom_site_label
_atom_site_type_symbol
_atom_site_fract_x
_atom_site_fract_y
_atom_site_fract_z
_atom_site_charge
O        O      0.110200000000     0.523000000000     0.227400000000     0     
O        O      0.100000000000     0.500000000000     0.500000000000     0     
O        O      0.000000000000     0.599000000000     0.363000000000     0     
O        O      0.129200000000     0.675800000000     0.395100000000     0     
O        O      0.176500000000     0.646700000000     0.817600000000     0     
O        O      0.250000000000     0.487300000000     0.750000000000     0     
O        O      0.189400000000     0.500000000000     0.000000000000     0     
O        O      0.250000000000     0.750000000000     0.000000000000     0     
O        O      0.250000000000     0.689700000000     0.250000000000     0     
T        Si     0.084700000000     0.573600000000     0.371200000000     0     
T        Si     0.181700000000     0.527100000000     0.838000000000     0     
T        Si     0.300400000000     0.742400000000     0.134900000000     0     


