data_zeolite

_audit_creation_method RASPA-1.0
_audit_creation_date 2021-6-7
_audit_author_name ''

_cell_length_a    24.6308
_cell_length_b    26.6513
_cell_length_c    12.7267
_cell_angle_alpha 90
_cell_angle_beta  90
_cell_angle_gamma 90
_cell_volume      50126.2

_symmetry_cell_setting          orthorhombic
_symmetry_space_group_name_Hall '-C 2 2'
_symmetry_space_group_name_H-M  'C m m m'
_symmetry_Int_Tables_number     65

loop_
_symmetry_equiv_pos_as_xyz
 'x,y,z'
 '-x,-y,z'
 '-x,y,-z'
 'x,-y,-z'
 '-x,-y,-z'
 'x,y,-z'
 'x,-y,z'
 '-x,y,z'
 'x+1/2,y+1/2,z'
 '-x+1/2,-y+1/2,z'
 '-x+1/2,y+1/2,-z'
 'x+1/2,-y+1/2,-z'
 '-x+1/2,-y+1/2,-z'
 'x+1/2,y+1/2,-z'
 'x+1/2,-y+1/2,z'
 '-x+1/2,y+1/2,z'

loop_
_atom_site_label
_atom_site_type_symbol
_atom_site_fract_x
_atom_site_fract_y
_atom_site_fract_z
_atom_site_charge
T        Si     0.131030000000     0.092880000000     0.306100000000     0     
T        Si     0.201160000000     0.058200000000     0.118890000000     0     
T        Si     0.061410000000     0.183360000000     0.377570000000     0     
T        Si     0.061390000000     0.297930000000     0.377460000000     0     
T        Si     0.111020000000     0.394700000000     0.305690000000     0     
T        Si     0.175350000000     0.442200000000     0.121110000000     0     
T        Si     0.197040000000     0.057270000000     0.500000000000     0     
T        Si     0.172340000000     0.442730000000     0.500000000000     0     
T        Si     0.065230000000     0.000000000000     0.380020000000     0     
T        Si     0.000000000000     0.439790000000     0.382010000000     0     
O        O      0.237280000000     0.435900000000     0.159530000000     0     
O        O      0.157310000000     0.500000000000     0.132610000000     0     
O        O      0.170420000000     0.425350000000     0.000000000000     0     
O        O      0.136370000000     0.407640000000     0.192310000000     0     
O        O      0.101650000000     0.146700000000     0.314060000000     0     
O        O      0.160360000000     0.089200000000     0.193310000000     0     
O        O      0.175850000000     0.086510000000     0.397150000000     0     
O        O      0.086470000000     0.049160000000     0.319010000000     0     
O        O      0.196800000000     0.078550000000     0.000000000000     0     
O        O      0.183810000000     0.000000000000     0.121350000000     0     
O        O      0.000000000000     0.000000000000     0.378620000000     0     
O        O      0.086040000000     0.000000000000     0.500000000000     0     
O        O      0.101440000000     0.335050000000     0.314520000000     0     
O        O      0.151330000000     0.413740000000     0.396790000000     0     
O        O      0.053270000000     0.422250000000     0.318750000000     0     
O        O      0.063310000000     0.312690000000     0.500000000000     0     
O        O      0.080650000000     0.240650000000     0.362630000000     0     
O        O      0.000000000000     0.304080000000     0.335660000000     0     
O        O      0.000000000000     0.177130000000     0.335960000000     0     
O        O      0.063610000000     0.168460000000     0.500000000000     0     
O        O      0.237650000000     0.442280000000     0.500000000000     0     
O        O      0.151450000000     0.500000000000     0.500000000000     0     
O        O      0.176150000000     0.000000000000     0.500000000000     0     
O        O      0.000000000000     0.417810000000     0.500000000000     0     
O        O      0.000000000000     0.500000000000     0.388580000000     0     


