data_zeolite

_audit_creation_method RASPA-1.0
_audit_creation_date 2021-6-7
_audit_author_name ''

_cell_length_a    9.762
_cell_length_b    20.53
_cell_length_c    9.996
_cell_angle_alpha 90
_cell_angle_beta  96.897
_cell_angle_gamma 90
_cell_volume      35799.1

_symmetry_cell_setting          monoclinic
_symmetry_space_group_name_Hall '-C 2y'
_symmetry_space_group_name_H-M  'C 1 2/m 1'
_symmetry_Int_Tables_number     12

loop_
_symmetry_equiv_pos_as_xyz
 'x,y,z'
 '-x,y,-z'
 '-x,-y,-z'
 'x,-y,z'
 'x+1/2,y+1/2,z'
 '-x+1/2,y+1/2,-z'
 '-x+1/2,-y+1/2,-z'
 'x+1/2,-y+1/2,z'

loop_
_atom_site_label
_atom_site_type_symbol
_atom_site_fract_x
_atom_site_fract_y
_atom_site_fract_z
_atom_site_charge
O        O      0.159500000000     0.294000000000     0.323400000000     0     
O        O      0.000000000000     0.334900000000     0.500000000000     0     
O        O      0.970600000000     0.383000000000     0.255100000000     0     
O        O      0.896700000000     0.262100000000     0.295900000000     0     
O        O      0.254100000000     0.091500000000     0.080400000000     0     
O        O      0.437900000000     0.000000000000     0.150100000000     0     
O        O      0.500000000000     0.098400000000     0.000000000000     0     
O        O      0.294900000000     0.326200000000     0.121100000000     0     
O        O      0.176700000000     0.211300000000     0.125700000000     0     
O        O      0.000000000000     0.128600000000     0.000000000000     0     
T        Si     0.006600000000     0.318300000000     0.343600000000     0     
T        Si     0.415700000000     0.076600000000     0.121400000000     0     
T        Si     0.257100000000     0.267300000000     0.216500000000     0     
T        Si     0.158900000000     0.151400000000     0.021200000000     0     


