data_zeolite

_audit_creation_method RASPA-1.0
_audit_creation_date 2021-6-6
_audit_author_name ''

_cell_length_a    18.256
_cell_length_b    20.534
_cell_length_c    7.542
_cell_angle_alpha 90
_cell_angle_beta  90
_cell_angle_gamma 90
_cell_volume      45236.2

_symmetry_cell_setting          orthorhombic
_symmetry_space_group_name_Hall '-C 2c 2'
_symmetry_space_group_name_H-M  'C m c m'
_symmetry_Int_Tables_number     63

loop_
_symmetry_equiv_pos_as_xyz
 'x,y,z'
 '-x,-y,z+1/2'
 '-x,y,-z+1/2'
 'x,-y,-z'
 '-x,-y,-z'
 'x,y,-z+1/2'
 'x,-y,z+1/2'
 '-x,y,z'
 'x+1/2,y+1/2,z'
 '-x+1/2,-y+1/2,z+1/2'
 '-x+1/2,y+1/2,-z+1/2'
 'x+1/2,-y+1/2,-z'
 '-x+1/2,-y+1/2,-z'
 'x+1/2,y+1/2,-z+1/2'
 'x+1/2,-y+1/2,z+1/2'
 '-x+1/2,y+1/2,z'

loop_
_atom_site_label
_atom_site_type_symbol
_atom_site_fract_x
_atom_site_fract_y
_atom_site_fract_z
_atom_site_charge
O        O      0.281100000000     0.000000000000     0.000000000000     0     
O        O      0.326800000000     0.079500000000     0.250000000000     0     
O        O      0.375700000000     0.092400000000     0.924300000000     0     
O        O      0.239100000000     0.122300000000     0.999200000000     0     
O        O      0.325300000000     0.308900000000     0.250000000000     0     
O        O      0.250000000000     0.250000000000     0.000000000000     0     
O        O      0.375700000000     0.305800000000     0.924200000000     0     
O        O      0.000000000000     0.400500000000     0.250000000000     0     
O        O      0.090600000000     0.300900000000     0.250000000000     0     
O        O      0.000000000000     0.201300000000     0.250000000000     0     
T        Si     0.305700000000     0.073600000000     0.043500000000     0     
T        Si     0.302800000000     0.310600000000     0.043700000000     0     
T        Si     0.084800000000     0.379100000000     0.250000000000     0     
T        Si     0.084800000000     0.222700000000     0.250000000000     0     


