data_zeolite

_audit_creation_method RASPA-1.0
_audit_creation_date 2021-6-7
_audit_author_name ''

_cell_length_a    23.7289
_cell_length_b    11.2932
_cell_length_c    14.4719
_cell_angle_alpha 90
_cell_angle_beta  90
_cell_angle_gamma 90
_cell_volume      46537.3

_symmetry_cell_setting          orthorhombic
_symmetry_space_group_name_Hall '-P 2ab 2a'
_symmetry_space_group_name_H-M  'P m m n'
_symmetry_Int_Tables_number     59

loop_
_symmetry_equiv_pos_as_xyz
 'x,y,z'
 '-x+1/2,-y+1/2,z'
 '-x,y+1/2,-z'
 'x+1/2,-y,-z'
 '-x,-y,-z'
 'x+1/2,y+1/2,-z'
 'x,-y+1/2,z'
 '-x+1/2,y,z'

loop_
_atom_site_label
_atom_site_type_symbol
_atom_site_fract_x
_atom_site_fract_y
_atom_site_fract_z
_atom_site_charge
T        Si     0.432330000000     0.509040000000     0.095250000000     0     
T        Si     0.357810000000     0.389980000000     0.227980000000     0     
T        Si     0.551960000000     0.615800000000     0.077410000000     0     
T        Si     0.655600000000     0.615070000000     0.203380000000     0     
T        Si     0.315720000000     0.496910000000     0.407470000000     0     
T        Si     0.682320000000     0.617560000000     0.406460000000     0     
T        Si     0.314270000000     0.750000000000     0.319240000000     0     
T        Si     0.366360000000     0.750000000000     0.123070000000     0     
T        Si     0.250000000000     0.390510000000     0.124000000000     0     
T        Si     0.750000000000     0.505210000000     0.078280000000     0     
T        Si     0.750000000000     0.250000000000     0.989450000000     0     
O        O      0.750000000000     0.366320000000     0.053590000000     0     
O        O      0.805330000000     0.250000000000     0.925340000000     0     
O        O      0.305430000000     0.445550000000     0.171900000000     0     
O        O      0.250000000000     0.416750000000     0.014710000000     0     
O        O      0.250000000000     0.250000000000     0.142230000000     0     
O        O      0.325120000000     0.865910000000     0.381670000000     0     
O        O      0.357520000000     0.750000000000     0.233400000000     0     
O        O      0.250000000000     0.750000000000     0.283240000000     0     
O        O      0.415710000000     0.449110000000     0.192580000000     0     
O        O      0.499600000000     0.526130000000     0.088930000000     0     
O        O      0.412250000000     0.423350000000     0.012310000000     0     
O        O      0.400550000000     0.634620000000     0.089410000000     0     
O        O      0.350800000000     0.414740000000     0.336890000000     0     
O        O      0.360410000000     0.250000000000     0.208310000000     0     
O        O      0.805450000000     0.533410000000     0.138420000000     0     
O        O      0.591350000000     0.608830000000     0.167910000000     0     
O        O      0.529770000000     0.750000000000     0.066140000000     0     
O        O      0.658940000000     0.569870000000     0.308800000000     0     
O        O      0.677310000000     0.750000000000     0.198160000000     0     
O        O      0.336700000000     0.469610000000     0.511190000000     0     
O        O      0.250000000000     0.463530000000     0.398580000000     0     
O        O      0.659360000000     0.750000000000     0.424300000000     0     
O        O      0.750000000000     0.621940000000     0.402520000000     0     


