data_zeolite

_audit_creation_method RASPA-1.0
_audit_creation_date 2021-6-8
_audit_author_name ''

_cell_length_a    12.548
_cell_length_b    12.548
_cell_length_c    20.789
_cell_angle_alpha 90
_cell_angle_beta  90
_cell_angle_gamma 120
_cell_volume      51025.3

_symmetry_cell_setting          hexagonal
_symmetry_space_group_name_Hall '-P 6c 2c'
_symmetry_space_group_name_H-M  'P 63/m m c'
_symmetry_Int_Tables_number     194

loop_
_symmetry_equiv_pos_as_xyz
 'x,y,z'
 '-y,x-y,z'
 '-x+y,-x,z'
 '-x,-y,z+1/2'
 'y,-x+y,z+1/2'
 'x-y,x,z+1/2'
 'y,x,-z'
 'x-y,-y,-z'
 '-x,-x+y,-z'
 '-y,-x,-z+1/2'
 '-x+y,y,-z+1/2'
 'x,x-y,-z+1/2'
 '-x,-y,-z'
 'y,-x+y,-z'
 'x-y,x,-z'
 'x,y,-z+1/2'
 '-y,x-y,-z+1/2'
 '-x+y,-x,-z+1/2'
 '-y,-x,z'
 '-x+y,y,z'
 'x,x-y,z'
 'y,x,z+1/2'
 'x-y,-y,z+1/2'
 '-x,-x+y,z+1/2'

loop_
_atom_site_label
_atom_site_type_symbol
_atom_site_fract_x
_atom_site_fract_y
_atom_site_fract_z
_atom_site_charge
O        O      0.660800000000     0.695300000000     0.060600000000     0     
O        O      0.668000000000     0.691200000000     0.186800000000     0     
O        O      0.530300000000     0.765200000000     0.128800000000     0     
O        O      0.468500000000     0.531400000000     0.125300000000     0     
O        O      0.101300000000     0.898700000000     0.250000000000     0     
O        O      0.268400000000     0.134200000000     0.250000000000     0     
O        O      0.115900000000     0.884200000000     0.981900000000     0     
T        Si     0.581700000000     0.670600000000     0.125400000000     0     
T        Si     0.246600000000     0.996500000000     0.250000000000     0     
T        Si     0.247800000000     0.000000000000     0.000000000000     0     


