data_zeolite

_audit_creation_method RASPA-1.0
_audit_creation_date 2021-6-6
_audit_author_name ''

_cell_length_a    18.628
_cell_length_b    13.436
_cell_length_c    7.629
_cell_angle_alpha 90
_cell_angle_beta  102.322
_cell_angle_gamma 90
_cell_volume      29847.1

_symmetry_cell_setting          monoclinic
_symmetry_space_group_name_Hall '-C 2y'
_symmetry_space_group_name_H-M  'C 1 2/m 1'
_symmetry_Int_Tables_number     12

loop_
_symmetry_equiv_pos_as_xyz
 'x,y,z'
 '-x,y,-z'
 '-x,-y,-z'
 'x,-y,z'
 'x+1/2,y+1/2,z'
 '-x+1/2,y+1/2,-z'
 '-x+1/2,-y+1/2,-z'
 'x+1/2,-y+1/2,z'

loop_
_atom_site_label
_atom_site_type_symbol
_atom_site_fract_x
_atom_site_fract_y
_atom_site_fract_z
_atom_site_charge
O        O      0.060900000000     0.625700000000     0.841800000000     0     
O        O      0.959100000000     0.500000000000     0.684900000000     0     
O        O      0.923700000000     0.684800000000     0.744500000000     0     
O        O      0.000000000000     0.646800000000     0.500000000000     0     
O        O      0.180000000000     0.683400000000     0.070000000000     0     
O        O      0.169500000000     0.500000000000     0.948800000000     0     
O        O      0.185000000000     0.647200000000     0.733400000000     0     
O        O      0.683600000000     0.684100000000     0.325200000000     0     
O        O      0.790000000000     0.627700000000     0.591400000000     0     
O        O      0.732800000000     0.500000000000     0.338800000000     0     
T        Si     0.837500000000     0.703000000000     0.735100000000     0     
T        Si     0.985900000000     0.614100000000     0.692800000000     0     
T        Si     0.148800000000     0.614300000000     0.898100000000     0     
T        Si     0.755300000000     0.614600000000     0.380500000000     0     


