data_zeolite

_audit_creation_method RASPA-1.0
_audit_creation_date 2021-6-6
_audit_author_name ''

_cell_length_a    10.233
_cell_length_b    12.558
_cell_length_c    21.717
_cell_angle_alpha 90
_cell_angle_beta  90
_cell_angle_gamma 90
_cell_volume      50233.8

_symmetry_cell_setting          orthorhombic
_symmetry_space_group_name_Hall '-I 2b 2'
_symmetry_space_group_name_H-M  'I m m a'
_symmetry_Int_Tables_number     74

loop_
_symmetry_equiv_pos_as_xyz
 'x,y,z'
 '-x,-y+1/2,z'
 '-x,y+1/2,-z'
 'x,-y,-z'
 '-x,-y,-z'
 'x,y+1/2,-z'
 'x,-y+1/2,z'
 '-x,y,z'
 'x+1/2,y+1/2,z+1/2'
 '-x+1/2,-y,z+1/2'
 '-x+1/2,y,-z+1/2'
 'x+1/2,-y+1/2,-z+1/2'
 '-x+1/2,-y+1/2,-z+1/2'
 'x+1/2,y,-z+1/2'
 'x+1/2,-y,z+1/2'
 '-x+1/2,y+1/2,z+1/2'

loop_
_atom_site_label
_atom_site_type_symbol
_atom_site_fract_x
_atom_site_fract_y
_atom_site_fract_z
_atom_site_charge
O        O      0.193000000000     0.450700000000     0.054200000000     0     
O        O      0.371300000000     0.378000000000     0.131400000000     0     
O        O      0.128500000000     0.402700000000     0.168000000000     0     
O        O      0.189000000000     0.250000000000     0.090500000000     0     
O        O      0.000000000000     0.441800000000     0.629300000000     0     
O        O      0.000000000000     0.556900000000     0.729800000000     0     
O        O      0.000000000000     0.750000000000     0.774900000000     0     
O        O      0.128300000000     0.905900000000     0.472900000000     0     
O        O      0.000000000000     0.750000000000     0.417900000000     0     
T        Si     0.220400000000     0.370800000000     0.110800000000     0     
T        Si     0.000000000000     0.561600000000     0.655800000000     0     
T        Si     0.000000000000     0.874400000000     0.792500000000     0     
T        Si     0.000000000000     0.875000000000     0.434000000000     0     
T        Si     0.218200000000     0.500000000000     0.500000000000     0     


