data_zeolite

_audit_creation_method RASPA-1.0
_audit_creation_date 2021-6-7
_audit_author_name ''

_cell_length_a    7.503
_cell_length_b    12.773
_cell_length_c    13.706
_cell_angle_alpha 90
_cell_angle_beta  90
_cell_angle_gamma 90
_cell_volume      31524.6

_symmetry_cell_setting          orthorhombic
_symmetry_space_group_name_Hall '-P 2ac 2n'
_symmetry_space_group_name_H-M  'P n m a'
_symmetry_Int_Tables_number     62

loop_
_symmetry_equiv_pos_as_xyz
 'x,y,z'
 '-x+1/2,-y,z+1/2'
 '-x,y+1/2,-z'
 'x+1/2,-y+1/2,-z+1/2'
 '-x,-y,-z'
 'x+1/2,y,-z+1/2'
 'x,-y+1/2,z'
 '-x+1/2,y+1/2,z+1/2'

loop_
_atom_site_label
_atom_site_type_symbol
_atom_site_fract_x
_atom_site_fract_y
_atom_site_fract_z
_atom_site_charge
O        O      0.524700000000     0.621800000000     0.553600000000     0     
O        O      0.071000000000     0.558700000000     0.765600000000     0     
O        O      0.845700000000     0.619700000000     0.629600000000     0     
O        O      0.183600000000     0.591000000000     0.586400000000     0     
O        O      0.316000000000     0.557600000000     0.411600000000     0     
O        O      0.088000000000     0.750000000000     0.696200000000     0     
O        O      0.287500000000     0.750000000000     0.478600000000     0     
T        Si     0.046800000000     0.629600000000     0.669400000000     0     
T        Si     0.656400000000     0.560500000000     0.626600000000     0     
T        Si     0.327900000000     0.630100000000     0.507500000000     0     


