data_zeolite

_audit_creation_method RASPA-1.0
_audit_creation_date 2021-6-7
_audit_author_name ''

_cell_length_a    13.747
_cell_length_b    24.069
_cell_length_c    18.329
_cell_angle_alpha 90
_cell_angle_beta  90
_cell_angle_gamma 90
_cell_volume      48517.1

_symmetry_cell_setting          orthorhombic
_symmetry_space_group_name_Hall '-C 2ac 2'
_symmetry_space_group_name_H-M  'C m c a'
_symmetry_Int_Tables_number     64

loop_
_symmetry_equiv_pos_as_xyz
 'x,y,z'
 '-x,-y+1/2,z+1/2'
 '-x,y+1/2,-z+1/2'
 'x,-y,-z'
 '-x,-y,-z'
 'x,y+1/2,-z+1/2'
 'x,-y+1/2,z+1/2'
 '-x,y,z'
 'x+1/2,y+1/2,z'
 '-x+1/2,-y,z+1/2'
 '-x+1/2,y,-z+1/2'
 'x+1/2,-y+1/2,-z'
 '-x+1/2,-y+1/2,-z'
 'x+1/2,y,-z+1/2'
 'x+1/2,-y,z+1/2'
 '-x+1/2,y+1/2,z'

loop_
_atom_site_label
_atom_site_type_symbol
_atom_site_fract_x
_atom_site_fract_y
_atom_site_fract_z
_atom_site_charge
O        O      0.647300000000     0.500000000000     0.500000000000     0     
O        O      0.500000000000     0.454700000000     0.430800000000     0     
O        O      0.632000000000     0.509900000000     0.356300000000     0     
O        O      0.675100000000     0.413900000000     0.413300000000     0     
O        O      0.750000000000     0.542500000000     0.250000000000     0     
O        O      0.741500000000     0.597500000000     0.374900000000     0     
O        O      0.595800000000     0.601100000000     0.283100000000     0     
O        O      0.773800000000     0.650400000000     0.498900000000     0     
O        O      0.742700000000     0.707400000000     0.378600000000     0     
O        O      0.904600000000     0.650300000000     0.397000000000     0     
O        O      0.735600000000     0.684500000000     0.632000000000     0     
O        O      0.595500000000     0.676700000000     0.533400000000     0     
O        O      0.750000000000     0.754500000000     0.250000000000     0     
O        O      0.596200000000     0.768500000000     0.336600000000     0     
O        O      0.500000000000     0.753500000000     0.460200000000     0     
O        O      0.500000000000     0.754300000000     0.603700000000     0     
O        O      0.500000000000     0.676300000000     0.360700000000     0     
O        O      0.500000000000     0.681600000000     0.219400000000     0     
T        Si     0.613700000000     0.470100000000     0.425600000000     0     
T        Si     0.680700000000     0.562400000000     0.315800000000     0     
T        Si     0.789300000000     0.651600000000     0.411900000000     0     
T        Si     0.694700000000     0.649700000000     0.563600000000     0     
T        Si     0.712800000000     0.761800000000     0.332600000000     0     
T        Si     0.500000000000     0.715300000000     0.532400000000     0     
T        Si     0.500000000000     0.742600000000     0.373500000000     0     
T        Si     0.500000000000     0.639300000000     0.287400000000     0     
T        Si     0.000000000000     0.682300000000     0.368400000000     0     


