data_zeolite

_audit_creation_method RASPA-1.0
_audit_creation_date 2021-6-7
_audit_author_name ''

_cell_length_a    8.992
_cell_length_b    19.356
_cell_length_c    10.392
_cell_angle_alpha 90
_cell_angle_beta  90
_cell_angle_gamma 90
_cell_volume      32556.9

_symmetry_cell_setting          orthorhombic
_symmetry_space_group_name_Hall '-C 2ac 2'
_symmetry_space_group_name_H-M  'C m c a'
_symmetry_Int_Tables_number     64

loop_
_symmetry_equiv_pos_as_xyz
 'x,y,z'
 '-x,-y+1/2,z+1/2'
 '-x,y+1/2,-z+1/2'
 'x,-y,-z'
 '-x,-y,-z'
 'x,y+1/2,-z+1/2'
 'x,-y+1/2,z+1/2'
 '-x,y,z'
 'x+1/2,y+1/2,z'
 '-x+1/2,-y,z+1/2'
 '-x+1/2,y,-z+1/2'
 'x+1/2,-y+1/2,-z'
 '-x+1/2,-y+1/2,-z'
 'x+1/2,y,-z+1/2'
 'x+1/2,-y,z+1/2'
 '-x+1/2,y+1/2,z'

loop_
_atom_site_label
_atom_site_type_symbol
_atom_site_fract_x
_atom_site_fract_y
_atom_site_fract_z
_atom_site_charge
O        O      0.246200000000     0.500000000000     0.500000000000     0     
O        O      0.250000000000     0.479000000000     0.250000000000     0     
O        O      0.206700000000     0.374500000000     0.407900000000     0     
O        O      0.000000000000     0.469200000000     0.378000000000     0     
O        O      0.250000000000     0.270500000000     0.250000000000     0     
O        O      0.250000000000     0.250000000000     0.000000000000     0     
O        O      0.500000000000     0.279300000000     0.119600000000     0     
T        Si     0.176200000000     0.455300000000     0.384000000000     0     
T        Si     0.323800000000     0.293500000000     0.115400000000     0     


