data_zeolite

_audit_creation_method RASPA-1.0
_audit_creation_date 2021-6-6
_audit_author_name ''

_cell_length_a    8.579
_cell_length_b    15.311
_cell_length_c    9.661
_cell_angle_alpha 90
_cell_angle_beta  90
_cell_angle_gamma 90
_cell_volume      22842

_symmetry_cell_setting          orthorhombic
_symmetry_space_group_name_Hall '-C 2a 2'
_symmetry_space_group_name_H-M  'C m m a'
_symmetry_Int_Tables_number     67

loop_
_symmetry_equiv_pos_as_xyz
 'x,y,z'
 '-x,-y+1/2,z'
 '-x,y+1/2,-z'
 'x,-y,-z'
 '-x,-y,-z'
 'x,y+1/2,-z'
 'x,-y+1/2,z'
 '-x,y,z'
 'x+1/2,y+1/2,z'
 '-x+1/2,-y,z'
 '-x+1/2,y,-z'
 'x+1/2,-y+1/2,-z'
 '-x+1/2,-y+1/2,-z'
 'x+1/2,y,-z'
 'x+1/2,-y,z'
 '-x+1/2,y+1/2,z'

loop_
_atom_site_label
_atom_site_type_symbol
_atom_site_fract_x
_atom_site_fract_y
_atom_site_fract_z
_atom_site_charge
O        O      0.250000000000     0.125100000000     0.500000000000     0     
O        O      0.249800000000     0.164200000000     0.235100000000     0     
O        O      0.250000000000     0.000000000000     0.313300000000     0     
O        O      0.000000000000     0.096300000000     0.349800000000     0     
O        O      0.500000000000     0.250000000000     0.157200000000     0     
O        O      0.250000000000     0.250000000000     0.000000000000     0     
T        Si     0.187400000000     0.096300000000     0.349700000000     0     
T        Si     0.312600000000     0.250000000000     0.156800000000     0     


