data_zeolite

_audit_creation_method RASPA-1.0
_audit_creation_date 2021-6-7
_audit_author_name ''

_cell_length_a    9.25
_cell_length_b    9.25
_cell_length_c    10.083
_cell_angle_alpha 90
_cell_angle_beta  90
_cell_angle_gamma 90
_cell_volume      23293.6

_symmetry_cell_setting          tetragonal
_symmetry_space_group_name_Hall 'P 4abw 2nw'
_symmetry_space_group_name_H-M  'P 41 21 2'
_symmetry_Int_Tables_number     92

loop_
_symmetry_equiv_pos_as_xyz
 'x,y,z'
 '-x,-y,z+1/2'
 '-y+1/2,x+1/2,z+1/4'
 'y+1/2,-x+1/2,z+3/4'
 '-x+1/2,y+1/2,-z+1/4'
 'x+1/2,-y+1/2,-z+3/4'
 'y,x,-z'
 '-y,-x,-z+1/2'

loop_
_atom_site_label
_atom_site_type_symbol
_atom_site_fract_x
_atom_site_fract_y
_atom_site_fract_z
_atom_site_charge
O        O      0.262200000000     0.520800000000     0.176400000000     0     
O        O      0.460000000000     0.460000000000     0.000000000000     0     
O        O      0.366700000000     0.256100000000     0.159000000000     0     
O        O      0.531000000000     0.469000000000     0.250000000000     0     
O        O      0.434600000000     0.007200000000     0.262600000000     0     
T        Si     0.404400000000     0.425400000000     0.148000000000     0     
T        Si     0.387900000000     0.086900000000     0.127200000000     0     


