data_zeolite

_audit_creation_method RASPA-1.0
_audit_creation_date 2021-6-6
_audit_author_name ''

_cell_length_a    13.795
_cell_length_b    13.795
_cell_length_c    40.75
_cell_angle_alpha 90
_cell_angle_beta  90
_cell_angle_gamma 120
_cell_volume      60442.7

_symmetry_cell_setting          trigonal
_symmetry_space_group_name_Hall '-R 3 2"'
_symmetry_space_group_name_H-M  'R -3 m'
_symmetry_Int_Tables_number     166

loop_
_symmetry_equiv_pos_as_xyz
 'x,y,z'
 '-y,x-y,z'
 '-x+y,-x,z'
 'y,x,-z'
 'x-y,-y,-z'
 '-x,-x+y,-z'
 '-x,-y,-z'
 'y,-x+y,-z'
 'x-y,x,-z'
 '-y,-x,z'
 '-x+y,y,z'
 'x,x-y,z'
 'x+2/3,y+1/3,z+1/3'
 '-y+2/3,x-y+1/3,z+1/3'
 '-x+y+2/3,-x+1/3,z+1/3'
 'y+2/3,x+1/3,-z+1/3'
 'x-y+2/3,-y+1/3,-z+1/3'
 '-x+2/3,-x+y+1/3,-z+1/3'
 '-x+2/3,-y+1/3,-z+1/3'
 'y+2/3,-x+y+1/3,-z+1/3'
 'x-y+2/3,x+1/3,-z+1/3'
 '-y+2/3,-x+1/3,z+1/3'
 '-x+y+2/3,y+1/3,z+1/3'
 'x+2/3,x-y+1/3,z+1/3'
 'x+1/3,y+2/3,z+2/3'
 '-y+1/3,x-y+2/3,z+2/3'
 '-x+y+1/3,-x+2/3,z+2/3'
 'y+1/3,x+2/3,-z+2/3'
 'x-y+1/3,-y+2/3,-z+2/3'
 '-x+1/3,-x+y+2/3,-z+2/3'
 '-x+1/3,-y+2/3,-z+2/3'
 'y+1/3,-x+y+2/3,-z+2/3'
 'x-y+1/3,x+2/3,-z+2/3'
 '-y+1/3,-x+2/3,z+2/3'
 '-x+y+1/3,y+2/3,z+2/3'
 'x+1/3,x-y+2/3,z+2/3'

loop_
_atom_site_label
_atom_site_type_symbol
_atom_site_fract_x
_atom_site_fract_y
_atom_site_fract_z
_atom_site_charge
O        O      0.688900000000     0.939400000000     0.089600000000     0     
O        O      0.643900000000     0.098400000000     0.079300000000     0     
O        O      0.853900000000     0.146100000000     0.079900000000     0     
O        O      0.722300000000     0.030800000000     0.031000000000     0     
O        O      0.149500000000     0.299100000000     0.145500000000     0     
O        O      0.063800000000     0.127600000000     0.104100000000     0     
O        O      0.173800000000     0.347700000000     0.208300000000     0     
O        O      0.142300000000     0.475600000000     0.166700000000     0     
O        O      0.063800000000     0.127500000000     0.208100000000     0     
O        O      0.105500000000     0.894500000000     0.009100000000     0     
O        O      0.000000000000     0.000000000000     0.156100000000     0     
T        Si     0.728100000000     0.053900000000     0.069800000000     0     
T        Si     0.130900000000     0.261800000000     0.107500000000     0     
T        Si     0.199900000000     0.399900000000     0.171800000000     0     
T        Si     0.118700000000     0.237400000000     0.230900000000     0     
T        Si     0.225600000000     0.000000000000     0.000000000000     0     
T        Si     0.000000000000     0.000000000000     0.195600000000     0     
T        Si     0.000000000000     0.000000000000     0.116600000000     0     


