data_zeolite

_audit_creation_method RASPA-1.0
_audit_creation_date 2021-6-6
_audit_author_name ''

_cell_length_a    12.392
_cell_length_b    12.392
_cell_length_c    30.469
_cell_angle_alpha 90
_cell_angle_beta  90
_cell_angle_gamma 120
_cell_volume      36468.2

_symmetry_cell_setting          hexagonal
_symmetry_space_group_name_Hall '-P 6c 2c'
_symmetry_space_group_name_H-M  'P 63/m m c'
_symmetry_Int_Tables_number     194

loop_
_symmetry_equiv_pos_as_xyz
 'x,y,z'
 '-y,x-y,z'
 '-x+y,-x,z'
 '-x,-y,z+1/2'
 'y,-x+y,z+1/2'
 'x-y,x,z+1/2'
 'y,x,-z'
 'x-y,-y,-z'
 '-x,-x+y,-z'
 '-y,-x,-z+1/2'
 '-x+y,y,-z+1/2'
 'x,x-y,-z+1/2'
 '-x,-y,-z'
 'y,-x+y,-z'
 'x-y,x,-z'
 'x,y,-z+1/2'
 '-y,x-y,-z+1/2'
 '-x+y,-x,-z+1/2'
 '-y,-x,z'
 '-x+y,y,z'
 'x,x-y,z'
 'y,x,z+1/2'
 'x-y,-y,z+1/2'
 '-x,-x+y,z+1/2'

loop_
_atom_site_label
_atom_site_type_symbol
_atom_site_fract_x
_atom_site_fract_y
_atom_site_fract_z
_atom_site_charge
O        O      0.116300000000     0.883700000000     0.013600000000     0     
O        O      0.024500000000     0.652600000000     0.122700000000     0     
O        O      0.883200000000     0.441600000000     0.080900000000     0     
O        O      0.792900000000     0.585900000000     0.103000000000     0     
O        O      0.452500000000     0.547500000000     0.182700000000     0     
O        O      0.581300000000     0.790600000000     0.176500000000     0     
O        O      0.687000000000     0.667900000000     0.206700000000     0     
O        O      0.469500000000     0.939000000000     0.750000000000     0     
O        O      0.538700000000     0.769300000000     0.750000000000     0     
O        O      0.961300000000     0.655900000000     0.040800000000     0     
T        Si     0.915600000000     0.583700000000     0.086900000000     0     
T        Si     0.587600000000     0.664700000000     0.171800000000     0     
T        Si     0.916300000000     0.586400000000     0.250000000000     0     
T        Si     0.249400000000     0.000000000000     0.000000000000     0     


