data_zeolite

_audit_creation_method RASPA-1.0
_audit_creation_date 2021-6-6
_audit_author_name ''

_cell_length_a    26.689
_cell_length_b    26.689
_cell_length_c    12.908
_cell_angle_alpha 90
_cell_angle_beta  90
_cell_angle_gamma 90
_cell_volume      18388.8

_symmetry_cell_setting          tetragonal
_symmetry_space_group_name_Hall '-I 4 2'
_symmetry_space_group_name_H-M  'I 4/m m m'
_symmetry_Int_Tables_number     139

loop_
_symmetry_equiv_pos_as_xyz
 'x,y,z'
 '-x,-y,z'
 '-y,x,z'
 'y,-x,z'
 '-x,y,-z'
 'x,-y,-z'
 'y,x,-z'
 '-y,-x,-z'
 '-x,-y,-z'
 'x,y,-z'
 'y,-x,-z'
 '-y,x,-z'
 'x,-y,z'
 '-x,y,z'
 '-y,-x,z'
 'y,x,z'
 'x+1/2,y+1/2,z+1/2'
 '-x+1/2,-y+1/2,z+1/2'
 '-y+1/2,x+1/2,z+1/2'
 'y+1/2,-x+1/2,z+1/2'
 '-x+1/2,y+1/2,-z+1/2'
 'x+1/2,-y+1/2,-z+1/2'
 'y+1/2,x+1/2,-z+1/2'
 '-y+1/2,-x+1/2,-z+1/2'
 '-x+1/2,-y+1/2,-z+1/2'
 'x+1/2,y+1/2,-z+1/2'
 'y+1/2,-x+1/2,-z+1/2'
 '-y+1/2,x+1/2,-z+1/2'
 'x+1/2,-y+1/2,z+1/2'
 '-x+1/2,y+1/2,z+1/2'
 '-y+1/2,-x+1/2,z+1/2'
 'y+1/2,x+1/2,z+1/2'

loop_
_atom_site_label
_atom_site_type_symbol
_atom_site_fract_x
_atom_site_fract_y
_atom_site_fract_z
_atom_site_charge
O        O      0.078900000000     0.323400000000     0.000000000000     0     
O        O      0.000000000000     0.334100000000     0.118600000000     0     
O        O      0.063200000000     0.260300000000     0.153300000000     0     
O        O      0.088600000000     0.353600000000     0.194200000000     0     
O        O      0.098700000000     0.170100000000     0.182400000000     0     
O        O      0.065400000000     0.195800000000     0.000000000000     0     
O        O      0.000000000000     0.185200000000     0.150100000000     0     
O        O      0.070400000000     0.070400000000     0.500000000000     0     
O        O      0.000000000000     0.069700000000     0.357100000000     0     
O        O      0.092300000000     0.092300000000     0.306700000000     0     
O        O      0.083000000000     0.083000000000     0.103000000000     0     
O        O      0.086400000000     0.450900000000     0.164600000000     0     
O        O      0.000000000000     0.070000000000     0.000000000000     0     
O        O      0.000000000000     0.500000000000     0.335400000000     0     
O        O      0.000000000000     0.442400000000     0.500000000000     0     
T        Si     0.058000000000     0.317700000000     0.116500000000     0     
T        Si     0.056500000000     0.202200000000     0.122600000000     0     
T        Si     0.000000000000     0.442800000000     0.375500000000     0     
T        Si     0.058000000000     0.058000000000     0.380700000000     0     
T        Si     0.111500000000     0.111500000000     0.195400000000     0     
T        Si     0.092600000000     0.407400000000     0.250000000000     0     
T        Si     0.059100000000     0.059100000000     0.000000000000     0     


