data_zeolite

_audit_creation_method RASPA-1.0
_audit_creation_date 2021-6-6
_audit_author_name ''

_cell_length_a    10.101
_cell_length_b    10.101
_cell_length_c    7.647
_cell_angle_alpha 90
_cell_angle_beta  90
_cell_angle_gamma 120
_cell_volume      24325

_symmetry_cell_setting          hexagonal
_symmetry_space_group_name_Hall 'P 62 2 (0 0 4)'
_symmetry_space_group_name_H-M  'P 62 2 2'
_symmetry_Int_Tables_number     180

loop_
_symmetry_equiv_pos_as_xyz
 'x,y,z'
 '-y,x-y,z+2/3'
 '-x+y,-x,z+1/3'
 '-x,-y,z'
 'y,-x+y,z+2/3'
 'x-y,x,z+1/3'
 'y,x,-z+2/3'
 'x-y,-y,-z'
 '-x,-x+y,-z+1/3'
 '-y,-x,-z+2/3'
 '-x+y,y,-z'
 'x,x-y,-z+1/3'

loop_
_atom_site_label
_atom_site_type_symbol
_atom_site_fract_x
_atom_site_fract_y
_atom_site_fract_z
_atom_site_charge
O        O      0.317100000000     0.682900000000     0.833300000000     0     
O        O      0.464300000000     0.357000000000     0.709500000000     0     
T        Si     0.286500000000     0.573100000000     0.000000000000     0     
T        Si     0.000000000000     0.500000000000     0.166700000000     0     


