data_zeolite

_audit_creation_method RASPA-1.0
_audit_creation_date 2021-6-7
_audit_author_name ''

_cell_length_a    24.0638
_cell_length_b    13.8332
_cell_length_c    12.3516
_cell_angle_alpha 90
_cell_angle_beta  109.128
_cell_angle_gamma 90
_cell_volume      46615.1

_symmetry_cell_setting          monoclinic
_symmetry_space_group_name_Hall '-C 2y'
_symmetry_space_group_name_H-M  'C 1 2/m 1'
_symmetry_Int_Tables_number     12

loop_
_symmetry_equiv_pos_as_xyz
 'x,y,z'
 '-x,y,-z'
 '-x,-y,-z'
 'x,-y,z'
 'x+1/2,y+1/2,z'
 '-x+1/2,y+1/2,-z'
 '-x+1/2,-y+1/2,-z'
 'x+1/2,-y+1/2,z'

loop_
_atom_site_label
_atom_site_type_symbol
_atom_site_fract_x
_atom_site_fract_y
_atom_site_fract_z
_atom_site_charge
T        Si     0.307340000000     0.794280000000     0.251720000000     0     
T        Si     0.313900000000     0.791820000000     0.510520000000     0     
T        Si     0.319180000000     0.792740000000     0.864990000000     0     
T        Si     0.362790000000     0.691370000000     0.093540000000     0     
T        Si     0.387720000000     0.691280000000     0.733010000000     0     
T        Si     0.990520000000     0.886110000000     0.121650000000     0     
T        Si     0.267650000000     0.000000000000     0.780130000000     0     
T        Si     0.211540000000     0.500000000000     0.826520000000     0     
T        Si     0.311050000000     0.500000000000     0.712490000000     0     
T        Si     0.219460000000     0.500000000000     0.458090000000     0     
T        Si     0.294620000000     0.500000000000     0.056700000000     0     
O        O      0.323860000000     0.903000000000     0.226240000000     0     
O        O      0.345750000000     0.719730000000     0.205130000000     0     
O        O      0.323870000000     0.781710000000     0.388290000000     0     
O        O      0.238210000000     0.772900000000     0.191890000000     0     
O        O      0.319180000000     0.903860000000     0.548430000000     0     
O        O      0.250000000000     0.750000000000     0.500000000000     0     
O        O      0.365000000000     0.732030000000     0.603920000000     0     
O        O      0.342960000000     0.778130000000     0.001930000000     0     
O        O      0.304520000000     0.905170000000     0.836220000000     0     
O        O      0.372390000000     0.767470000000     0.817580000000     0     
O        O      0.327900000000     0.595280000000     0.035450000000     0     
O        O      0.351980000000     0.594560000000     0.739750000000     0     
O        O      0.208820000000     0.000000000000     0.815270000000     0     
O        O      0.252140000000     0.000000000000     0.643190000000     0     
O        O      0.229320000000     0.500000000000     0.964180000000     0     
O        O      0.271220000000     0.500000000000     0.794540000000     0     
O        O      0.271520000000     0.500000000000     0.579470000000     0     
O        O      0.043590000000     0.836540000000     0.222010000000     0     
O        O      0.931770000000     0.831390000000     0.123700000000     0     
O        O      0.000000000000     0.130710000000     0.000000000000     0     
O        O      0.986880000000     0.000000000000     0.145250000000     0     


