data_zeolite

_audit_creation_method RASPA-1.0
_audit_creation_date 2021-6-7
_audit_author_name ''

_cell_length_a    14.0966
_cell_length_b    14.0966
_cell_length_c    18.3338
_cell_angle_alpha 90
_cell_angle_beta  90
_cell_angle_gamma 90
_cell_volume      29145.6

_symmetry_cell_setting          tetragonal
_symmetry_space_group_name_Hall '-P 4ac 2a'
_symmetry_space_group_name_H-M  'P 42/n m c'
_symmetry_Int_Tables_number     137

loop_
_symmetry_equiv_pos_as_xyz
 'x,y,z'
 '-x+1/2,-y+1/2,z'
 '-y+1/2,x,z+1/2'
 'y,-x+1/2,z+1/2'
 '-x,y+1/2,-z'
 'x+1/2,-y,-z'
 'y+1/2,x+1/2,-z+1/2'
 '-y,-x,-z+1/2'
 '-x,-y,-z'
 'x+1/2,y+1/2,-z'
 'y+1/2,-x,-z+1/2'
 '-y,x+1/2,-z+1/2'
 'x,-y+1/2,z'
 '-x+1/2,y,z'
 '-y+1/2,-x+1/2,z+1/2'
 'y,x,z+1/2'

loop_
_atom_site_label
_atom_site_type_symbol
_atom_site_fract_x
_atom_site_fract_y
_atom_site_fract_z
_atom_site_charge
T        Si     0.142600000000     0.138460000000     0.174480000000     0     
T        Si     0.017680000000     0.999240000000     0.086540000000     0     
T        Si     0.508910000000     0.138690000000     0.295390000000     0     
T        Si     0.145520000000     0.636790000000     0.168370000000     0     
O        O      0.146030000000     0.250000000000     0.156040000000     0     
O        O      0.084540000000     0.086530000000     0.110230000000     0     
O        O      0.250000000000     0.099670000000     0.178930000000     0     
O        O      0.088050000000     0.122540000000     0.250660000000     0     
O        O      0.071250000000     0.902700000000     0.109090000000     0     
O        O      0.000000000000     0.000000000000     0.000000000000     0     
O        O      0.917210000000     0.003920000000     0.128100000000     0     
O        O      0.524340000000     0.250000000000     0.310720000000     0     
O        O      0.597700000000     0.097700000000     0.250000000000     0     
O        O      0.250000000000     0.593630000000     0.154880000000     0     
O        O      0.111580000000     0.611580000000     0.250000000000     0     
O        O      0.152270000000     0.750000000000     0.159430000000     0     


