data_zeolite

_audit_creation_method RASPA-1.0
_audit_creation_date 2021-6-7
_audit_author_name ''

_cell_length_a    20.332
_cell_length_b    12.085
_cell_length_c    10.275
_cell_angle_alpha 90
_cell_angle_beta  105.254
_cell_angle_gamma 90
_cell_volume      43843.4

_symmetry_cell_setting          monoclinic
_symmetry_space_group_name_Hall '-C 2yc'
_symmetry_space_group_name_H-M  'C 1 2/c 1'
_symmetry_Int_Tables_number     15

loop_
_symmetry_equiv_pos_as_xyz
 'x,y,z'
 '-x,y,-z+1/2'
 '-x,-y,-z'
 'x,-y,z+1/2'
 'x+1/2,y+1/2,z'
 '-x+1/2,y+1/2,-z+1/2'
 '-x+1/2,-y+1/2,-z'
 'x+1/2,-y+1/2,z+1/2'

loop_
_atom_site_label
_atom_site_type_symbol
_atom_site_fract_x
_atom_site_fract_y
_atom_site_fract_z
_atom_site_charge
O        O      0.348900000000     0.800800000000     0.386100000000     0     
O        O      0.226200000000     0.886100000000     0.309400000000     0     
O        O      0.226900000000     0.121800000000     0.173500000000     0     
O        O      0.404500000000     0.396200000000     0.317800000000     0     
O        O      0.349500000000     0.206200000000     0.218900000000     0     
O        O      0.366800000000     0.365200000000     0.057000000000     0     
O        O      0.500000000000     0.500000000000     0.000000000000     0     
O        O      0.403100000000     0.386400000000     0.832100000000     0     
O        O      0.311300000000     0.049300000000     0.037200000000     0     
O        O      0.500000000000     0.485700000000     0.750000000000     0     
O        O      0.332100000000     0.004900000000     0.299300000000     0     
T        Si     0.305400000000     0.094500000000     0.181100000000     0     
T        Si     0.304700000000     0.911700000000     0.384300000000     0     
T        Si     0.348400000000     0.338100000000     0.196800000000     0     
T        Si     0.347800000000     0.331900000000     0.899800000000     0     
T        Si     0.451100000000     0.494300000000     0.849400000000     0     


