data_zeolite

_audit_creation_method RASPA-1.0
_audit_creation_date 2021-6-7
_audit_author_name ''

_cell_length_a    18.1807
_cell_length_b    31.8406
_cell_length_c    12.6407
_cell_angle_alpha 90
_cell_angle_beta  90
_cell_angle_gamma 90
_cell_volume      43904.9

_symmetry_cell_setting          orthorhombic
_symmetry_space_group_name_Hall '-C 2 2'
_symmetry_space_group_name_H-M  'C m m m'
_symmetry_Int_Tables_number     65

loop_
_symmetry_equiv_pos_as_xyz
 'x,y,z'
 '-x,-y,z'
 '-x,y,-z'
 'x,-y,-z'
 '-x,-y,-z'
 'x,y,-z'
 'x,-y,z'
 '-x,y,z'
 'x+1/2,y+1/2,z'
 '-x+1/2,-y+1/2,z'
 '-x+1/2,y+1/2,-z'
 'x+1/2,-y+1/2,-z'
 '-x+1/2,-y+1/2,-z'
 'x+1/2,y+1/2,-z'
 'x+1/2,-y+1/2,z'
 '-x+1/2,y+1/2,z'

loop_
_atom_site_label
_atom_site_type_symbol
_atom_site_fract_x
_atom_site_fract_y
_atom_site_fract_z
_atom_site_charge
T        Si     0.415200000000     0.238880000000     0.378650000000     0     
T        Si     0.142110000000     0.176360000000     0.298770000000     0     
T        Si     0.207500000000     0.048660000000     0.122910000000     0     
T        Si     0.915950000000     0.115640000000     0.123790000000     0     
T        Si     0.307320000000     0.070690000000     0.311390000000     0     
T        Si     0.301440000000     0.163810000000     0.376690000000     0     
T        Si     0.198120000000     0.047630000000     0.500000000000     0     
T        Si     0.086820000000     0.123860000000     0.500000000000     0     
T        Si     0.412090000000     0.000000000000     0.376770000000     0     
O        O      0.365740000000     0.197760000000     0.641640000000     0     
O        O      0.000000000000     0.107790000000     0.158890000000     0     
O        O      0.500000000000     0.000000000000     0.363860000000     0     
O        O      0.093020000000     0.246510000000     0.500000000000     0     
O        O      0.500000000000     0.228050000000     0.354140000000     0     
O        O      0.881990000000     0.154370000000     0.189490000000     0     
O        O      0.247050000000     0.054980000000     0.395710000000     0     
O        O      0.230400000000     0.176930000000     0.691820000000     0     
O        O      0.610040000000     0.000000000000     0.500000000000     0     
O        O      0.195550000000     0.000000000000     0.847140000000     0     
O        O      0.913710000000     0.127340000000     0.000000000000     0     
O        O      0.770460000000     0.052590000000     0.000000000000     0     
O        O      0.111620000000     0.223820000000     0.301780000000     0     
O        O      0.867480000000     0.074160000000     0.144650000000     0     
O        O      0.279790000000     0.161810000000     0.500000000000     0     
O        O      0.621010000000     0.041190000000     0.320090000000     0     
O        O      0.727220000000     0.067790000000     0.194340000000     0     
O        O      0.670210000000     0.118470000000     0.337690000000     0     
O        O      0.107810000000     0.150330000000     0.395990000000     0     
O        O      0.168250000000     0.000000000000     0.500000000000     0     
O        O      0.870260000000     0.079670000000     0.500000000000     0     
O        O      0.000000000000     0.114230000000     0.500000000000     0     


