data_zeolite

_audit_creation_method RASPA-1.0
_audit_creation_date 2021-6-7
_audit_author_name ''

_cell_length_a    26.31
_cell_length_b    26.31
_cell_length_c    26.31
_cell_angle_alpha 90
_cell_angle_beta  90
_cell_angle_gamma 90
_cell_volume      18212.2

_symmetry_cell_setting          cubic
_symmetry_space_group_name_Hall 'P 4bd 2ab 3'
_symmetry_space_group_name_H-M  'P 41 3 2'
_symmetry_Int_Tables_number     213

loop_
_symmetry_equiv_pos_as_xyz
 'x,y,z'
 '-x+1/2,-y,z+1/2'
 '-x,y+1/2,-z+1/2'
 'x+1/2,-y+1/2,-z'
 'z,x,y'
 'z+1/2,-x+1/2,-y'
 '-z+1/2,-x,y+1/2'
 '-z,x+1/2,-y+1/2'
 'y,z,x'
 '-y,z+1/2,-x+1/2'
 'y+1/2,-z+1/2,-x'
 '-y+1/2,-z,x+1/2'
 'y+3/4,x+1/4,-z+1/4'
 '-y+3/4,-x+3/4,-z+3/4'
 'y+1/4,-x+1/4,z+3/4'
 '-y+1/4,x+3/4,z+1/4'
 'x+3/4,z+1/4,-y+1/4'
 '-x+1/4,z+3/4,y+1/4'
 '-x+3/4,-z+3/4,-y+3/4'
 'x+1/4,-z+1/4,y+3/4'
 'z+3/4,y+1/4,-x+1/4'
 'z+1/4,-y+1/4,x+3/4'
 '-z+1/4,y+3/4,x+1/4'
 '-z+3/4,-y+3/4,-x+3/4'

loop_
_atom_site_label
_atom_site_type_symbol
_atom_site_fract_x
_atom_site_fract_y
_atom_site_fract_z
_atom_site_charge
O        O      0.018800000000     0.202600000000     0.010500000000     0     
O        O      0.030400000000     0.173400000000     0.105500000000     0     
O        O      0.043000000000     0.107300000000     0.031600000000     0     
O        O      0.109500000000     0.180800000000     0.045300000000     0     
O        O      0.186100000000     0.167300000000     0.108000000000     0     
O        O      0.202300000000     0.200100000000     0.014900000000     0     
O        O      0.230500000000     0.295400000000     0.026700000000     0     
O        O      0.294300000000     0.221200000000     0.047400000000     0     
O        O      0.209000000000     0.389600000000     0.053000000000     0     
O        O      0.137800000000     0.319400000000     0.055300000000     0     
O        O      0.211700000000     0.318300000000     0.122300000000     0     
O        O      0.066000000000     0.316000000000     0.125000000000     0     
O        O      0.067100000000     0.389900000000     0.058000000000     0     
O        O      0.044100000000     0.483800000000     0.033600000000     0     
O        O      0.138200000000     0.460200000000     0.055600000000     0     
O        O      0.209700000000     0.459700000000     0.125000000000     0     
O        O      0.201000000000     0.201000000000     0.201000000000     0     
O        O      0.011000000000     0.011000000000     0.011000000000     0     
O        O      0.234400000000     0.487000000000     0.028200000000     0     
T        Si     0.050200000000     0.165800000000     0.048000000000     0     
T        Si     0.167900000000     0.163300000000     0.049700000000     0     
T        Si     0.249000000000     0.239400000000     0.010500000000     0     
T        Si     0.197300000000     0.330600000000     0.064100000000     0     
T        Si     0.078700000000     0.330500000000     0.066900000000     0     
T        Si     0.079600000000     0.448700000000     0.069000000000     0     
T        Si     0.197300000000     0.448200000000     0.066200000000     0     
T        Si     0.049000000000     0.049000000000     0.049000000000     0     
T        Si     0.165700000000     0.165700000000     0.165700000000     0     
T        Si     0.236200000000     0.236200000000     0.236200000000     0     


