data_zeolite

_audit_creation_method RASPA-1.0
_audit_creation_date 2021-6-7
_audit_author_name ''

_cell_length_a    13.05
_cell_length_b    21.853
_cell_length_c    13.573
_cell_angle_alpha 90
_cell_angle_beta  102.905
_cell_angle_gamma 90
_cell_volume      45276

_symmetry_cell_setting          monoclinic
_symmetry_space_group_name_Hall '-P 2yn'
_symmetry_space_group_name_H-M  'P 1 21/n 1'
_symmetry_Int_Tables_number     14

loop_
_symmetry_equiv_pos_as_xyz
 'x,y,z'
 '-x+1/2,y+1/2,-z+1/2'
 '-x,-y,-z'
 'x+1/2,-y+1/2,z+1/2'

loop_
_atom_site_label
_atom_site_type_symbol
_atom_site_fract_x
_atom_site_fract_y
_atom_site_fract_z
_atom_site_charge
O        O      0.621500000000     0.534600000000     0.015500000000     0     
O        O      0.603200000000     0.158800000000     0.327700000000     0     
O        O      0.868000000000     0.402200000000     0.263900000000     0     
O        O      0.667500000000     0.238000000000     0.476300000000     0     
O        O      0.560400000000     0.141200000000     0.505900000000     0     
O        O      0.730400000000     0.329100000000     0.148300000000     0     
O        O      0.742200000000     0.444100000000     0.098500000000     0     
O        O      0.621800000000     0.232900000000     0.180800000000     0     
O        O      0.436800000000     0.417700000000     0.474300000000     0     
O        O      0.938900000000     0.401900000000     0.460700000000     0     
O        O      0.394400000000     0.131900000000     0.585000000000     0     
O        O      0.554000000000     0.457700000000     0.136800000000     0     
O        O      0.625100000000     0.590200000000     0.844700000000     0     
O        O      0.754200000000     0.129200000000     0.484200000000     0     
O        O      0.522200000000     0.433400000000     0.317800000000     0     
O        O      0.401100000000     0.071800000000     0.418200000000     0     
O        O      0.705000000000     0.535800000000     0.209900000000     0     
O        O      0.679800000000     0.118000000000     0.176000000000     0     
O        O      0.480500000000     0.145300000000     0.145500000000     0     
O        O      0.600700000000     0.351900000000     0.456100000000     0     
O        O      0.521400000000     0.038400000000     0.591300000000     0     
O        O      0.237700000000     0.448800000000     0.415500000000     0     
O        O      0.787200000000     0.524600000000     0.937200000000     0     
O        O      0.675900000000     0.558100000000     0.391200000000     0     
O        O      0.163000000000     0.560200000000     0.405300000000     0     
O        O      0.709200000000     0.305600000000     0.331500000000     0     
O        O      0.546500000000     0.343500000000     0.195100000000     0     
O        O      0.847600000000     0.500600000000     0.369200000000     0     
O        O      0.034500000000     0.467500000000     0.345700000000     0     
O        O      0.328400000000     0.001300000000     0.260500000000     0     
O        O      0.802600000000     0.329000000000     0.519400000000     0     
O        O      0.622100000000     0.469300000000     0.499100000000     0     
T        Si     0.596200000000     0.163700000000     0.208100000000     0     
T        Si     0.646300000000     0.166900000000     0.447600000000     0     
T        Si     0.695100000000     0.569900000000     0.953100000000     0     
T        Si     0.655100000000     0.492800000000     0.115300000000     0     
T        Si     0.651600000000     0.302500000000     0.213700000000     0     
T        Si     0.694800000000     0.306300000000     0.446200000000     0     
T        Si     0.499800000000     0.411200000000     0.201900000000     0     
T        Si     0.469400000000     0.096100000000     0.524800000000     0     
T        Si     0.763000000000     0.552700000000     0.324100000000     0     
T        Si     0.373500000000     0.002600000000     0.380900000000     0     
T        Si     0.150500000000     0.494200000000     0.351300000000     0     
T        Si     0.809300000000     0.385900000000     0.149600000000     0     
T        Si     0.545400000000     0.418000000000     0.436700000000     0     
T        Si     0.890400000000     0.381200000000     0.554700000000     0     
T        Si     0.344600000000     0.459700000000     0.499700000000     0     
T        Si     0.922300000000     0.443200000000     0.360000000000     0     


