data_zeolite

_audit_creation_method RASPA-1.0
_audit_creation_date 2021-6-6
_audit_author_name ''

_cell_length_a    5.256
_cell_length_b    7.45
_cell_length_c    8.159
_cell_angle_alpha 90
_cell_angle_beta  90
_cell_angle_gamma 90
_cell_volume      25558.7

_symmetry_cell_setting          orthorhombic
_symmetry_space_group_name_Hall '-P 2a 2a'
_symmetry_space_group_name_H-M  'P m m a'
_symmetry_Int_Tables_number     51

loop_
_symmetry_equiv_pos_as_xyz
 'x,y,z'
 '-x+1/2,-y,z'
 '-x,y,-z'
 'x+1/2,-y,-z'
 '-x,-y,-z'
 'x+1/2,y,-z'
 'x,-y,z'
 '-x+1/2,y,z'

loop_
_atom_site_label
_atom_site_type_symbol
_atom_site_fract_x
_atom_site_fract_y
_atom_site_fract_z
_atom_site_charge
O        O      0.000000000000     0.261200000000     0.000000000000     0     
O        O      0.250000000000     0.000000000000     0.145500000000     0     
O        O      0.250000000000     0.323500000000     0.272800000000     0     
O        O      0.500000000000     0.500000000000     0.500000000000     0     
T        Si     0.250000000000     0.211100000000     0.104200000000     0     
T        Si     0.250000000000     0.500000000000     0.386500000000     0     


