data_zeolite

_audit_creation_method RASPA-1.0
_audit_creation_date 2021-6-7
_audit_author_name ''

_cell_length_a    13.901
_cell_length_b    22.861
_cell_length_c    20.582
_cell_angle_alpha 90
_cell_angle_beta  90
_cell_angle_gamma 90
_cell_volume      52326.2

_symmetry_cell_setting          orthorhombic
_symmetry_space_group_name_Hall '-C 2a 2'
_symmetry_space_group_name_H-M  'C m m a'
_symmetry_Int_Tables_number     67

loop_
_symmetry_equiv_pos_as_xyz
 'x,y,z'
 '-x,-y+1/2,z'
 '-x,y+1/2,-z'
 'x,-y,-z'
 '-x,-y,-z'
 'x,y+1/2,-z'
 'x,-y+1/2,z'
 '-x,y,z'
 'x+1/2,y+1/2,z'
 '-x+1/2,-y,z'
 '-x+1/2,y,-z'
 'x+1/2,-y+1/2,-z'
 '-x+1/2,-y+1/2,-z'
 'x+1/2,y,-z'
 'x+1/2,-y,z'
 '-x+1/2,y+1/2,z'

loop_
_atom_site_label
_atom_site_type_symbol
_atom_site_fract_x
_atom_site_fract_y
_atom_site_fract_z
_atom_site_charge
O        O      0.250000000000     0.414900000000     0.500000000000     0     
O        O      0.243100000000     0.391700000000     0.374200000000     0     
O        O      0.403200000000     0.430300000000     0.424800000000     0     
O        O      0.250000000000     0.500000000000     0.415300000000     0     
O        O      0.250000000000     0.362400000000     0.000000000000     0     
O        O      0.161200000000     0.307800000000     0.093800000000     0     
O        O      0.093200000000     0.407600000000     0.044300000000     0     
O        O      0.243300000000     0.408100000000     0.119300000000     0     
O        O      0.404400000000     0.433600000000     0.173000000000     0     
O        O      0.250000000000     0.500000000000     0.195900000000     0     
O        O      0.263600000000     0.393700000000     0.245900000000     0     
O        O      0.167500000000     0.307000000000     0.303100000000     0     
O        O      0.094900000000     0.410700000000     0.298000000000     0     
O        O      0.000000000000     0.499600000000     0.250700000000     0     
O        O      0.000000000000     0.480800000000     0.376000000000     0     
O        O      0.000000000000     0.500000000000     0.500000000000     0     
O        O      0.000000000000     0.476000000000     0.125200000000     0     
O        O      0.000000000000     0.500000000000     0.000000000000     0     
O        O      0.112600000000     0.250000000000     0.199600000000     0     
O        O      0.000000000000     0.250000000000     0.096900000000     0     
O        O      0.000000000000     0.250000000000     0.301800000000     0     
T        Si     0.287400000000     0.434400000000     0.429000000000     0     
T        Si     0.187200000000     0.371100000000     0.064800000000     0     
T        Si     0.289800000000     0.434600000000     0.184700000000     0     
T        Si     0.194600000000     0.375500000000     0.305400000000     0     
T        Si     0.000000000000     0.449900000000     0.305900000000     0     
T        Si     0.000000000000     0.531400000000     0.430200000000     0     
T        Si     0.000000000000     0.448600000000     0.053200000000     0     
T        Si     0.000000000000     0.527200000000     0.178800000000     0     
T        Si     0.109800000000     0.250000000000     0.121600000000     0     
T        Si     0.110400000000     0.250000000000     0.277800000000     0     


