data_zeolite

_audit_creation_method RASPA-1.0
_audit_creation_date 2021-6-7
_audit_author_name ''

_cell_length_a    10.002
_cell_length_b    10.002
_cell_length_c    34.141
_cell_angle_alpha 90
_cell_angle_beta  90
_cell_angle_gamma 90
_cell_volume      30739.2

_symmetry_cell_setting          tetragonal
_symmetry_space_group_name_Hall '-P 4ac 2ac'
_symmetry_space_group_name_H-M  'P 42/n c m'
_symmetry_Int_Tables_number     138

loop_
_symmetry_equiv_pos_as_xyz
 'x,y,z'
 '-x+1/2,-y+1/2,z'
 '-y+1/2,x,z+1/2'
 'y,-x+1/2,z+1/2'
 '-x,y+1/2,-z+1/2'
 'x+1/2,-y,-z+1/2'
 'y+1/2,x+1/2,-z'
 '-y,-x,-z'
 '-x,-y,-z'
 'x+1/2,y+1/2,-z'
 'y+1/2,-x,-z+1/2'
 '-y,x+1/2,-z+1/2'
 'x,-y+1/2,z+1/2'
 '-x+1/2,y,z+1/2'
 '-y+1/2,-x+1/2,z'
 'y,x,z'

loop_
_atom_site_label
_atom_site_type_symbol
_atom_site_fract_x
_atom_site_fract_y
_atom_site_fract_z
_atom_site_charge
O        O      0.004500000000     0.818300000000     0.921200000000     0     
O        O      0.034500000000     0.651500000000     0.862600000000     0     
O        O      0.105600000000     0.580200000000     0.933600000000     0     
O        O      0.250000000000     0.750000000000     0.895400000000     0     
O        O      0.158500000000     0.158500000000     0.462300000000     0     
O        O      0.000000000000     0.000000000000     0.500000000000     0     
O        O      0.003000000000     0.003000000000     0.244200000000     0     
O        O      0.064000000000     0.250000000000     0.264000000000     0     
O        O      0.059800000000     0.059800000000     0.317200000000     0     
O        O      0.121200000000     0.121200000000     0.698900000000     0     
O        O      0.157400000000     0.157400000000     0.018000000000     0     
O        O      0.250000000000     0.250000000000     0.083900000000     0     
T        Si     0.098500000000     0.702900000000     0.903200000000     0     
T        Si     0.045500000000     0.045500000000     0.456900000000     0     
T        Si     0.094600000000     0.094600000000     0.272300000000     0     
T        Si     0.108400000000     0.108400000000     0.745800000000     0     
T        Si     0.955400000000     0.955400000000     0.336100000000     0     
T        Si     0.145400000000     0.145400000000     0.065000000000     0     
T        Si     0.250000000000     0.250000000000     0.490400000000     0     


