data_zeolite

_audit_creation_method RASPA-1.0
_audit_creation_date 2022-1-5
_audit_author_name ''

_cell_length_a    19.8011
_cell_length_b    19.8011
_cell_length_c    14.1878
_cell_angle_alpha 90
_cell_angle_beta  90
_cell_angle_gamma 120
_cell_volume      38540.4

_symmetry_cell_setting          trigonal
_symmetry_space_group_name_Hall 'P 3 -2c'
_symmetry_space_group_name_H-M  'P 3 1 c'
_symmetry_Int_Tables_number     159

loop_
_symmetry_equiv_pos_as_xyz
 'x,y,z'
 '-y,x-y,z'
 '-x+y,-x,z'
 'y,x,z+1/2'
 'x-y,-y,z+1/2'
 '-x,-x+y,z+1/2'

loop_
_atom_site_label
_atom_site_type_symbol
_atom_site_fract_x
_atom_site_fract_y
_atom_site_fract_z
_atom_site_charge
T        Si     0.911110000000     0.409980000000     0.595000000000     0     
T        Si     0.767500000000     0.252530000000     0.600910000000     0     
T        Si     0.649470000000     0.115660000000     0.491640000000     0     
T        Si     0.731470000000     0.011390000000     0.750880000000     0     
T        Si     0.928440000000     0.430820000000     0.994690000000     0     
T        Si     0.774630000000     0.283030000000     0.958110000000     0     
T        Si     0.673410000000     0.150800000000     0.085690000000     0     
T        Si     0.730460000000     0.165870000000     0.796000000000     0     
T        Si     0.550970000000     0.065030000000     0.788030000000     0     
T        Si     0.440530000000     0.353060000000     0.280920000000     0     
T        Si     0.681130000000     0.981650000000     0.541520000000     0     
T        Si     0.666670000000     0.333330000000     0.640080000000     0     
T        Si     0.666670000000     0.333330000000     0.866750000000     0     
O        O      0.875210000000     0.459180000000     0.548040000000     0     
O        O      0.915200000000     0.421200000000     0.707700000000     0     
O        O      0.854450000000     0.318830000000     0.572130000000     0     
O        O      0.711350000000     0.289540000000     0.602330000000     0     
O        O      0.734690000000     0.183200000000     0.524340000000     0     
O        O      0.768630000000     0.217690000000     0.702970000000     0     
O        O      0.639930000000     0.123010000000     0.380040000000     0     
O        O      0.640420000000     0.031870000000     0.514100000000     0     
O        O      0.729990000000     0.014980000000     0.637580000000     0     
O        O      0.895550000000     0.482250000000     0.042700000000     0     
O        O      0.952300000000     0.457730000000     0.886940000000     0     
O        O      0.861880000000     0.340130000000     0.995610000000     0     
O        O      0.743670000000     0.333970000000     0.904400000000     0     
O        O      0.718390000000     0.238830000000     0.046240000000     0     
O        O      0.773000000000     0.218820000000     0.887050000000     0     
O        O      0.669410000000     0.151590000000     0.199060000000     0     
O        O      0.720840000000     0.107590000000     0.055820000000     0     
O        O      0.751670000000     0.013260000000     0.957870000000     0     
O        O      0.802760000000     0.999630000000     0.783700000000     0     
O        O      0.996670000000     0.438810000000     0.552630000000     0     
O        O      0.711740000000     0.061170000000     0.287310000000     0     
O        O      0.638640000000     0.136760000000     0.799420000000     0     
O        O      0.742570000000     0.091320000000     0.794650000000     0     
O        O      0.552960000000     0.988240000000     0.755170000000     0     
O        O      0.666670000000     0.333330000000     0.753410000000     0     


