data_zeolite

_audit_creation_method RASPA-1.0
_audit_creation_date 2021-6-7
_audit_author_name ''

_cell_length_a    14.689
_cell_length_b    8.645
_cell_length_c    18.941
_cell_angle_alpha 90
_cell_angle_beta  90
_cell_angle_gamma 90
_cell_volume      28863

_symmetry_cell_setting          orthorhombic
_symmetry_space_group_name_Hall '-P 2n 2ab'
_symmetry_space_group_name_H-M  'P b c n'
_symmetry_Int_Tables_number     60

loop_
_symmetry_equiv_pos_as_xyz
 'x,y,z'
 '-x+1/2,-y+1/2,z+1/2'
 '-x,y,-z+1/2'
 'x+1/2,-y+1/2,-z'
 '-x,-y,-z'
 'x+1/2,y+1/2,-z+1/2'
 'x,-y,z+1/2'
 '-x+1/2,y+1/2,z'

loop_
_atom_site_label
_atom_site_type_symbol
_atom_site_fract_x
_atom_site_fract_y
_atom_site_fract_z
_atom_site_charge
O        O      0.560100000000     0.726700000000     0.591700000000     0     
O        O      0.401600000000     0.606900000000     0.556100000000     0     
O        O      0.286900000000     0.506300000000     0.459800000000     0     
O        O      0.277200000000     0.307500000000     0.354500000000     0     
O        O      0.584100000000     0.778700000000     0.725300000000     0     
O        O      0.469400000000     0.565600000000     0.684300000000     0     
O        O      0.455700000000     0.573200000000     0.425000000000     0     
O        O      0.653700000000     0.973000000000     0.632300000000     0     
O        O      0.158200000000     0.296400000000     0.457900000000     0     
T        Si     0.631200000000     0.794600000000     0.648700000000     0     
T        Si     0.492900000000     0.580800000000     0.601500000000     0     
T        Si     0.219200000000     0.409400000000     0.409700000000     0     
T        Si     0.371100000000     0.620800000000     0.474600000000     0     
T        Si     0.000000000000     0.828000000000     0.250000000000     0     


