data_zeolite

_audit_creation_method RASPA-1.0
_audit_creation_date 2021-6-7
_audit_author_name ''

_cell_length_a    18.0833
_cell_length_b    18.0833
_cell_length_c    8.98593
_cell_angle_alpha 90
_cell_angle_beta  90
_cell_angle_gamma 90
_cell_volume      35261.4

_symmetry_cell_setting          tetragonal
_symmetry_space_group_name_Hall '-I 4 2c'
_symmetry_space_group_name_H-M  'I 4/m c m'
_symmetry_Int_Tables_number     140

loop_
_symmetry_equiv_pos_as_xyz
 'x,y,z'
 '-x,-y,z'
 '-y,x,z'
 'y,-x,z'
 '-x,y,-z+1/2'
 'x,-y,-z+1/2'
 'y,x,-z+1/2'
 '-y,-x,-z+1/2'
 '-x,-y,-z'
 'x,y,-z'
 'y,-x,-z'
 '-y,x,-z'
 'x,-y,z+1/2'
 '-x,y,z+1/2'
 '-y,-x,z+1/2'
 'y,x,z+1/2'
 'x+1/2,y+1/2,z+1/2'
 '-x+1/2,-y+1/2,z+1/2'
 '-y+1/2,x+1/2,z+1/2'
 'y+1/2,-x+1/2,z+1/2'
 '-x+1/2,y+1/2,-z'
 'x+1/2,-y+1/2,-z'
 'y+1/2,x+1/2,-z'
 '-y+1/2,-x+1/2,-z'
 '-x+1/2,-y+1/2,-z+1/2'
 'x+1/2,y+1/2,-z+1/2'
 'y+1/2,-x+1/2,-z+1/2'
 '-y+1/2,x+1/2,-z+1/2'
 'x+1/2,-y+1/2,z'
 '-x+1/2,y+1/2,z'
 '-y+1/2,-x+1/2,z'
 'y+1/2,x+1/2,z'

loop_
_atom_site_label
_atom_site_type_symbol
_atom_site_fract_x
_atom_site_fract_y
_atom_site_fract_z
_atom_site_charge
T        Si     0.100830000000     0.283760000000     0.000000000000     0     
T        Si     0.118460000000     0.036350000000     0.000000000000     0     
T        Si     0.219600000000     0.000000000000     0.250000000000     0     
T        Si     0.257910000000     0.242090000000     0.000000000000     0     
O        O      0.133020000000     0.366980000000     0.000000000000     0     
O        O      0.051470000000     0.270900000000     0.853400000000     0     
O        O      0.169950000000     0.227410000000     0.000000000000     0     
O        O      0.167970000000     0.051070000000     0.146130000000     0     
O        O      0.048250000000     0.090950000000     0.000000000000     0     


