data_zeolite

_audit_creation_method RASPA-1.0
_audit_creation_date 2021-6-6
_audit_author_name ''

_cell_length_a    8.674
_cell_length_b    8.674
_cell_length_c    13.919
_cell_angle_alpha 90
_cell_angle_beta  90
_cell_angle_gamma 90
_cell_volume      18850.3

_symmetry_cell_setting          tetragonal
_symmetry_space_group_name_Hall '-P 4 2c'
_symmetry_space_group_name_H-M  'P 4/m c c'
_symmetry_Int_Tables_number     124

loop_
_symmetry_equiv_pos_as_xyz
 'x,y,z'
 '-x,-y,z'
 '-y,x,z'
 'y,-x,z'
 '-x,y,-z+1/2'
 'x,-y,-z+1/2'
 'y,x,-z+1/2'
 '-y,-x,-z+1/2'
 '-x,-y,-z'
 'x,y,-z'
 'y,-x,-z'
 '-y,x,-z'
 'x,-y,z+1/2'
 '-x,y,z+1/2'
 '-y,-x,z+1/2'
 'y,x,z+1/2'

loop_
_atom_site_label
_atom_site_type_symbol
_atom_site_fract_x
_atom_site_fract_y
_atom_site_fract_z
_atom_site_charge
O        O      0.108900000000     0.607400000000     0.317800000000     0     
O        O      0.198500000000     0.415500000000     0.000000000000     0     
O        O      0.393800000000     0.311000000000     0.132100000000     0     
T        Si     0.253400000000     0.430800000000     0.111400000000     0     
T        Si     0.000000000000     0.500000000000     0.250000000000     0     


