data_zeolite

_audit_creation_method RASPA-1.0
_audit_creation_date 2021-6-7
_audit_author_name ''

_cell_length_a    25.84
_cell_length_b    25.84
_cell_length_c    25.84
_cell_angle_alpha 90
_cell_angle_beta  90
_cell_angle_gamma 90
_cell_volume      17253.5

_symmetry_cell_setting          cubic
_symmetry_space_group_name_Hall '-P 4 2 3'
_symmetry_space_group_name_H-M  'P m -3 m'
_symmetry_Int_Tables_number     221

loop_
_symmetry_equiv_pos_as_xyz
 'x,y,z'
 '-x,-y,z'
 '-x,y,-z'
 'x,-y,-z'
 'z,x,y'
 'z,-x,-y'
 '-z,-x,y'
 '-z,x,-y'
 'y,z,x'
 '-y,z,-x'
 'y,-z,-x'
 '-y,-z,x'
 'y,x,-z'
 '-y,-x,-z'
 'y,-x,z'
 '-y,x,z'
 'x,z,-y'
 '-x,z,y'
 '-x,-z,-y'
 'x,-z,y'
 'z,y,-x'
 'z,-y,x'
 '-z,y,x'
 '-z,-y,-x'
 '-x,-y,-z'
 'x,y,-z'
 'x,-y,z'
 '-x,y,z'
 '-z,-x,-y'
 '-z,x,y'
 'z,x,-y'
 'z,-x,y'
 '-y,-z,-x'
 'y,-z,x'
 '-y,z,x'
 'y,z,-x'
 '-y,-x,z'
 'y,x,z'
 '-y,x,-z'
 'y,-x,-z'
 '-x,-z,y'
 'x,-z,-y'
 'x,z,y'
 '-x,z,-y'
 '-z,-y,x'
 '-z,y,-x'
 'z,-y,-x'
 'z,y,x'

loop_
_atom_site_label
_atom_site_type_symbol
_atom_site_fract_x
_atom_site_fract_y
_atom_site_fract_z
_atom_site_charge
O        O      0.169200000000     0.735500000000     0.500000000000     0     
O        O      0.225100000000     0.774900000000     0.424600000000     0     
O        O      0.215100000000     0.674000000000     0.433000000000     0     
O        O      0.135900000000     0.731100000000     0.404000000000     0     
O        O      0.315500000000     0.684500000000     0.579300000000     0     
O        O      0.271600000000     0.593700000000     0.593700000000     0     
O        O      0.279200000000     0.632200000000     0.500000000000     0     
O        O      0.101200000000     0.660900000000     0.660900000000     0     
O        O      0.050900000000     0.748700000000     0.649100000000     0     
O        O      0.050900000000     0.679700000000     0.574400000000     0     
O        O      0.000000000000     0.593700000000     0.406300000000     0     
O        O      0.000000000000     0.632500000000     0.500000000000     0     
O        O      0.000000000000     0.736300000000     0.736300000000     0     
O        O      0.000000000000     0.689800000000     0.826800000000     0     
T        Si     0.186300000000     0.728800000000     0.440500000000     0     
T        Si     0.270300000000     0.646100000000     0.560100000000     0     
T        Si     0.084700000000     0.705100000000     0.620200000000     0     
T        Si     0.000000000000     0.646500000000     0.439300000000     0     
T        Si     0.000000000000     0.681100000000     0.765100000000     0     


