data_zeolite

_audit_creation_method RASPA-1.0
_audit_creation_date 2021-6-7
_audit_author_name ''

_cell_length_a    7.1158
_cell_length_b    9.1748
_cell_length_c    9.116
_cell_angle_alpha 84.645
_cell_angle_beta  83.816
_cell_angle_gamma 86.659
_cell_volume      21182.5

_symmetry_cell_setting          triclinic
_symmetry_space_group_name_Hall '-P 1'
_symmetry_space_group_name_H-M  'P -1'
_symmetry_Int_Tables_number     2

loop_
_symmetry_equiv_pos_as_xyz
 'x,y,z'
 '-x,-y,-z'

loop_
_atom_site_label
_atom_site_type_symbol
_atom_site_fract_x
_atom_site_fract_y
_atom_site_fract_z
_atom_site_charge
T        Si     0.659600000000     0.354700000000     0.150500000000     0     
T        Si     0.238300000000     0.391100000000     0.087700000000     0     
T        Si     0.028900000000     0.824500000000     0.016600000000     0     
T        Si     0.038700000000     0.619500000000     0.298800000000     0     
T        Si     0.285100000000     0.552000000000     0.550000000000     0     
O        O      0.717900000000     0.343400000000     0.317200000000     0     
O        O      0.719300000000     0.509800000000     0.066300000000     0     
O        O      0.767400000000     0.223700000000     0.064200000000     0     
O        O      0.104000000000     0.483100000000     0.203200000000     0     
O        O      0.134500000000     0.246700000000     0.058600000000     0     
O        O      0.018500000000     0.766500000000     0.189400000000     0     
O        O      0.162600000000     0.412000000000     0.608200000000     0     
O        O      0.192800000000     0.639200000000     0.411500000000     0     
O        O      0.434300000000     0.342100000000     0.155600000000     0     
O        O      0.000000000000     0.000000000000     0.000000000000     0     
O        O      0.500000000000     0.500000000000     0.500000000000     0     


