data_zeolite

_audit_creation_method RASPA-1.0
_audit_creation_date 2021-6-6
_audit_author_name ''

_cell_length_a    13.691
_cell_length_b    13.691
_cell_length_c    29.449
_cell_angle_alpha 90
_cell_angle_beta  90
_cell_angle_gamma 120
_cell_volume      43024.3

_symmetry_cell_setting          hexagonal
_symmetry_space_group_name_Hall '-P 6c 2c'
_symmetry_space_group_name_H-M  'P 63/m m c'
_symmetry_Int_Tables_number     194

loop_
_symmetry_equiv_pos_as_xyz
 'x,y,z'
 '-y,x-y,z'
 '-x+y,-x,z'
 '-x,-y,z+1/2'
 'y,-x+y,z+1/2'
 'x-y,x,z+1/2'
 'y,x,-z'
 'x-y,-y,-z'
 '-x,-x+y,-z'
 '-y,-x,-z+1/2'
 '-x+y,y,-z+1/2'
 'x,x-y,-z+1/2'
 '-x,-y,-z'
 'y,-x+y,-z'
 'x-y,x,-z'
 'x,y,-z+1/2'
 '-y,x-y,-z+1/2'
 '-x+y,-x,-z+1/2'
 '-y,-x,z'
 '-x+y,y,z'
 'x,x-y,z'
 'y,x,z+1/2'
 'x-y,-y,z+1/2'
 '-x,-x+y,z+1/2'

loop_
_atom_site_label
_atom_site_type_symbol
_atom_site_fract_x
_atom_site_fract_y
_atom_site_fract_z
_atom_site_charge
O        O      0.258200000000     0.001200000000     0.250000000000     0     
O        O      0.241500000000     0.120700000000     0.183700000000     0     
O        O      0.307000000000     0.974100000000     0.166400000000     0     
O        O      0.096500000000     0.903500000000     0.189300000000     0     
O        O      0.334700000000     0.412100000000     0.416800000000     0     
O        O      0.213200000000     0.426300000000     0.482800000000     0     
O        O      0.355900000000     0.355900000000     0.500000000000     0     
O        O      0.431300000000     0.568700000000     0.479500000000     0     
O        O      0.474200000000     0.237100000000     0.644600000000     0     
O        O      0.545800000000     0.454200000000     0.650100000000     0     
T        Si     0.225700000000     0.999800000000     0.197400000000     0     
T        Si     0.333900000000     0.440900000000     0.469700000000     0     
T        Si     0.441300000000     0.333200000000     0.636100000000     0     


