data_zeolite

_audit_creation_method RASPA-1.0
_audit_creation_date 2021-6-7
_audit_author_name ''

_cell_length_a    13.502
_cell_length_b    17.802
_cell_length_c    17.942
_cell_angle_alpha 90
_cell_angle_beta  90
_cell_angle_gamma 90
_cell_volume      34500.7

_symmetry_cell_setting          orthorhombic
_symmetry_space_group_name_Hall '-F 2 2'
_symmetry_space_group_name_H-M  'F m m m'
_symmetry_Int_Tables_number     69

loop_
_symmetry_equiv_pos_as_xyz
 'x,y,z'
 '-x,-y,z'
 '-x,y,-z'
 'x,-y,-z'
 '-x,-y,-z'
 'x,y,-z'
 'x,-y,z'
 '-x,y,z'
 'x,y+1/2,z+1/2'
 '-x,-y+1/2,z+1/2'
 '-x,y+1/2,-z+1/2'
 'x,-y+1/2,-z+1/2'
 '-x,-y+1/2,-z+1/2'
 'x,y+1/2,-z+1/2'
 'x,-y+1/2,z+1/2'
 '-x,y+1/2,z+1/2'
 'x+1/2,y,z+1/2'
 '-x+1/2,-y,z+1/2'
 '-x+1/2,y,-z+1/2'
 'x+1/2,-y,-z+1/2'
 '-x+1/2,-y,-z+1/2'
 'x+1/2,y,-z+1/2'
 'x+1/2,-y,z+1/2'
 '-x+1/2,y,z+1/2'
 'x+1/2,y+1/2,z'
 '-x+1/2,-y+1/2,z'
 '-x+1/2,y+1/2,-z'
 'x+1/2,-y+1/2,-z'
 '-x+1/2,-y+1/2,-z'
 'x+1/2,y+1/2,-z'
 'x+1/2,-y+1/2,z'
 '-x+1/2,y+1/2,z'

loop_
_atom_site_label
_atom_site_type_symbol
_atom_site_fract_x
_atom_site_fract_y
_atom_site_fract_z
_atom_site_charge
O        O      0.000000000000     0.144900000000     0.189700000000     0     
O        O      0.133800000000     0.073800000000     0.269600000000     0     
O        O      0.181200000000     0.197800000000     0.198200000000     0     
O        O      0.146100000000     0.073800000000     0.123300000000     0     
O        O      0.313800000000     0.000000000000     0.109900000000     0     
O        O      0.184600000000     0.000000000000     0.000000000000     0     
O        O      0.000000000000     0.000000000000     0.346900000000     0     
T        Si     0.115200000000     0.122500000000     0.195300000000     0     
T        Si     0.197800000000     0.000000000000     0.089000000000     0     
T        Si     0.113400000000     0.000000000000     0.319000000000     0     
T        Si     0.250000000000     0.250000000000     0.250000000000     0     


