data_zeolite

_audit_creation_method RASPA-1.0
_audit_creation_date 2021-6-7
_audit_author_name ''

_cell_length_a    19.46
_cell_length_b    9.351
_cell_length_c    15.107
_cell_angle_alpha 90
_cell_angle_beta  90
_cell_angle_gamma 90
_cell_volume      32988.3

_symmetry_cell_setting          orthorhombic
_symmetry_space_group_name_Hall 'F 2 -2'
_symmetry_space_group_name_H-M  'F m m 2'
_symmetry_Int_Tables_number     42

loop_
_symmetry_equiv_pos_as_xyz
 'x,y,z'
 '-x,-y,z'
 'x,-y,z'
 '-x,y,z'
 'x,y+1/2,z+1/2'
 '-x,-y+1/2,z+1/2'
 'x,-y+1/2,z+1/2'
 '-x,y+1/2,z+1/2'
 'x+1/2,y,z+1/2'
 '-x+1/2,-y,z+1/2'
 'x+1/2,-y,z+1/2'
 '-x+1/2,y,z+1/2'
 'x+1/2,y+1/2,z'
 '-x+1/2,-y+1/2,z'
 'x+1/2,-y+1/2,z'
 '-x+1/2,y+1/2,z'

loop_
_atom_site_label
_atom_site_type_symbol
_atom_site_fract_x
_atom_site_fract_y
_atom_site_fract_z
_atom_site_charge
O        O      0.750000000000     0.750000000000     0.104000000000     0     
O        O      0.664200000000     0.716400000000     0.238400000000     0     
O        O      0.616100000000     0.793300000000     0.904500000000     0     
O        O      0.616000000000     0.770200000000     0.575200000000     0     
O        O      0.750000000000     0.750000000000     0.875100000000     0     
O        O      0.696300000000     0.000000000000     0.843000000000     0     
O        O      0.500000000000     0.802500000000     0.995600000000     0     
O        O      0.686700000000     0.000000000000     0.626800000000     0     
O        O      0.596300000000     0.000000000000     0.023300000000     0     
T        Si     0.679300000000     0.827500000000     0.636000000000     0     
T        Si     0.680700000000     0.670600000000     0.340100000000     0     
T        Si     0.582200000000     0.832700000000     0.000000000000     0     


