data_zeolite

_audit_creation_method RASPA-1.0
_audit_creation_date 2021-6-7
_audit_author_name ''

_cell_length_a    8.621
_cell_length_b    8.621
_cell_length_c    27.544
_cell_angle_alpha 90
_cell_angle_beta  90
_cell_angle_gamma 90
_cell_volume      18424

_symmetry_cell_setting          tetragonal
_symmetry_space_group_name_Hall '-P 4a 2bc'
_symmetry_space_group_name_H-M  'P 4/n n c'
_symmetry_Int_Tables_number     126

loop_
_symmetry_equiv_pos_as_xyz
 'x,y,z'
 '-x+1/2,-y+1/2,z'
 '-y+1/2,x,z'
 'y,-x+1/2,z'
 '-x+1/2,y,-z+1/2'
 'x,-y+1/2,-z+1/2'
 'y,x,-z+1/2'
 '-y+1/2,-x+1/2,-z+1/2'
 '-x,-y,-z'
 'x+1/2,y+1/2,-z'
 'y+1/2,-x,-z'
 '-y,x+1/2,-z'
 'x+1/2,-y,z+1/2'
 '-x,y+1/2,z+1/2'
 '-y,-x,z+1/2'
 'y+1/2,x+1/2,z+1/2'

loop_
_atom_site_label
_atom_site_type_symbol
_atom_site_fract_x
_atom_site_fract_y
_atom_site_fract_z
_atom_site_charge
O        O      0.138700000000     0.853700000000     0.034000000000     0     
O        O      0.937400000000     0.642900000000     0.059600000000     0     
O        O      0.050700000000     0.832500000000     0.125600000000     0     
O        O      0.359100000000     0.856500000000     0.283800000000     0     
O        O      0.937700000000     0.643600000000     0.191600000000     0     
T        Si     0.995900000000     0.817000000000     0.069900000000     0     
T        Si     0.818000000000     0.504100000000     0.181200000000     0     
T        Si     0.250000000000     0.750000000000     0.000000000000     0     
T        Si     0.250000000000     0.750000000000     0.250000000000     0     


