data_zeolite

_audit_creation_method RASPA-1.0
_audit_creation_date 2021-6-7
_audit_author_name ''

_cell_length_a    9.355
_cell_length_b    9.355
_cell_length_c    14.862
_cell_angle_alpha 90
_cell_angle_beta  90
_cell_angle_gamma 120
_cell_volume      36045

_symmetry_cell_setting          hexagonal
_symmetry_space_group_name_Hall 'P 61 2 (0 0 5)'
_symmetry_space_group_name_H-M  'P 61 2 2'
_symmetry_Int_Tables_number     178

loop_
_symmetry_equiv_pos_as_xyz
 'x,y,z'
 '-y,x-y,z+1/3'
 '-x+y,-x,z+2/3'
 '-x,-y,z+1/2'
 'y,-x+y,z+5/6'
 'x-y,x,z+1/6'
 'y,x,-z+1/3'
 'x-y,-y,-z'
 '-x,-x+y,-z+2/3'
 '-y,-x,-z+5/6'
 '-x+y,y,-z+1/2'
 'x,x-y,-z+1/6'

loop_
_atom_site_label
_atom_site_type_symbol
_atom_site_fract_x
_atom_site_fract_y
_atom_site_fract_z
_atom_site_charge
O        O      0.835300000000     0.551100000000     0.329900000000     0     
O        O      0.016400000000     0.783300000000     0.210500000000     0     
O        O      0.657500000000     0.606400000000     0.446700000000     0     
O        O      0.820100000000     0.456200000000     0.499900000000     0     
T        Si     0.821000000000     0.592800000000     0.433700000000     0     
T        Si     0.467800000000     0.532200000000     0.416700000000     0     
T        Si     0.833300000000     0.666700000000     0.250000000000     0     


