data_zeolite

_audit_creation_method RASPA-1.0
_audit_creation_date 2021-6-7
_audit_author_name ''

_cell_length_a    14.098
_cell_length_b    13.67
_cell_length_c    7.431
_cell_angle_alpha 90
_cell_angle_beta  102.421
_cell_angle_gamma 90
_cell_volume      22377.3

_symmetry_cell_setting          monoclinic
_symmetry_space_group_name_Hall '-C 2y'
_symmetry_space_group_name_H-M  'C 1 2/m 1'
_symmetry_Int_Tables_number     12

loop_
_symmetry_equiv_pos_as_xyz
 'x,y,z'
 '-x,y,-z'
 '-x,-y,-z'
 'x,-y,z'
 'x+1/2,y+1/2,z'
 '-x+1/2,y+1/2,-z'
 '-x+1/2,-y+1/2,-z'
 'x+1/2,-y+1/2,z'

loop_
_atom_site_label
_atom_site_type_symbol
_atom_site_fract_x
_atom_site_fract_y
_atom_site_fract_z
_atom_site_charge
O        O      0.687900000000     0.123600000000     0.624500000000     0     
O        O      0.500000000000     0.145600000000     0.500000000000     0     
O        O      0.621100000000     0.180700000000     0.283500000000     0     
O        O      0.591800000000     0.000000000000     0.380800000000     0     
O        O      0.641100000000     0.143400000000     0.946600000000     0     
O        O      0.819300000000     0.181200000000     0.912300000000     0     
O        O      0.755900000000     0.000000000000     0.892100000000     0     
O        O      0.500000000000     0.257900000000     0.000000000000     0     
T        Si     0.600100000000     0.112400000000     0.447100000000     0     
T        Si     0.726100000000     0.112200000000     0.843700000000     0     
T        Si     0.610700000000     0.225100000000     0.079700000000     0     


