data_zeolite

_audit_creation_method RASPA-1.0
_audit_creation_date 2021-6-6
_audit_author_name ''

_cell_length_a    14.19
_cell_length_b    14.19
_cell_length_c    11.499
_cell_angle_alpha 90
_cell_angle_beta  90
_cell_angle_gamma 120
_cell_volume      54140.1

_symmetry_cell_setting          hexagonal
_symmetry_space_group_name_Hall '-P 6 2'
_symmetry_space_group_name_H-M  'P 6/m m m'
_symmetry_Int_Tables_number     191

loop_
_symmetry_equiv_pos_as_xyz
 'x,y,z'
 '-y,x-y,z'
 '-x+y,-x,z'
 '-x,-y,z'
 'y,-x+y,z'
 'x-y,x,z'
 'y,x,-z'
 'x-y,-y,-z'
 '-x,-x+y,-z'
 '-y,-x,-z'
 '-x+y,y,-z'
 'x,x-y,-z'
 '-x,-y,-z'
 'y,-x+y,-z'
 'x-y,x,-z'
 'x,y,-z'
 '-y,x-y,-z'
 '-x+y,-x,-z'
 '-y,-x,z'
 '-x+y,y,z'
 'x,x-y,z'
 'y,x,z'
 'x-y,-y,z'
 '-x,-x+y,z'

loop_
_atom_site_label
_atom_site_type_symbol
_atom_site_fract_x
_atom_site_fract_y
_atom_site_fract_z
_atom_site_charge
O        O      0.395200000000     0.289300000000     0.303500000000     0     
O        O      0.337200000000     0.168600000000     0.114000000000     0     
O        O      0.542700000000     0.271400000000     0.184900000000     0     
O        O      0.365900000000     0.000000000000     0.500000000000     0     
O        O      0.500000000000     0.000000000000     0.341400000000     0     
O        O      0.185400000000     0.000000000000     0.000000000000     0     
O        O      0.333300000000     0.666700000000     0.000000000000     0     
T        Si     0.417300000000     0.208700000000     0.224600000000     0     
T        Si     0.388100000000     0.000000000000     0.362900000000     0     
T        Si     0.260900000000     0.130400000000     0.000000000000     0     
T        Si     0.333300000000     0.666700000000     0.139800000000     0     


