data_zeolite

_audit_creation_method RASPA-1.0
_audit_creation_date 2021-6-7
_audit_author_name ''

_cell_length_a    13.914
_cell_length_b    13.914
_cell_length_c    30.844
_cell_angle_alpha 90
_cell_angle_beta  90
_cell_angle_gamma 90
_cell_volume      23885.5

_symmetry_cell_setting          tetragonal
_symmetry_space_group_name_Hall '-I 4 2'
_symmetry_space_group_name_H-M  'I 4/m m m'
_symmetry_Int_Tables_number     139

loop_
_symmetry_equiv_pos_as_xyz
 'x,y,z'
 '-x,-y,z'
 '-y,x,z'
 'y,-x,z'
 '-x,y,-z'
 'x,-y,-z'
 'y,x,-z'
 '-y,-x,-z'
 '-x,-y,-z'
 'x,y,-z'
 'y,-x,-z'
 '-y,x,-z'
 'x,-y,z'
 '-x,y,z'
 '-y,-x,z'
 'y,x,z'
 'x+1/2,y+1/2,z+1/2'
 '-x+1/2,-y+1/2,z+1/2'
 '-y+1/2,x+1/2,z+1/2'
 'y+1/2,-x+1/2,z+1/2'
 '-x+1/2,y+1/2,-z+1/2'
 'x+1/2,-y+1/2,-z+1/2'
 'y+1/2,x+1/2,-z+1/2'
 '-y+1/2,-x+1/2,-z+1/2'
 '-x+1/2,-y+1/2,-z+1/2'
 'x+1/2,y+1/2,-z+1/2'
 'y+1/2,-x+1/2,-z+1/2'
 '-y+1/2,x+1/2,-z+1/2'
 'x+1/2,-y+1/2,z+1/2'
 '-x+1/2,y+1/2,z+1/2'
 '-y+1/2,-x+1/2,z+1/2'
 'y+1/2,x+1/2,z+1/2'

loop_
_atom_site_label
_atom_site_type_symbol
_atom_site_fract_x
_atom_site_fract_y
_atom_site_fract_z
_atom_site_charge
O        O      0.500000000000     0.000000000000     0.353000000000     0     
O        O      0.134000000000     0.000000000000     0.000000000000     0     
O        O      0.161500000000     0.161500000000     0.042400000000     0     
O        O      0.336200000000     0.094400000000     0.348200000000     0     
O        O      0.405700000000     0.000000000000     0.280400000000     0     
O        O      0.224900000000     0.000000000000     0.400800000000     0     
O        O      0.334200000000     0.200800000000     0.074000000000     0     
O        O      0.164200000000     0.164200000000     0.367500000000     0     
O        O      0.275400000000     0.275400000000     0.000000000000     0     
T        Si     0.256300000000     0.106300000000     0.385600000000     0     
T        Si     0.000000000000     0.393500000000     0.332300000000     0     
T        Si     0.243000000000     0.243000000000     0.048000000000     0     
T        Si     0.113700000000     0.113700000000     0.000000000000     0     
T        Si     0.000000000000     0.500000000000     0.250000000000     0     


