data_zeolite

_audit_creation_method RASPA-1.0
_audit_creation_date 2021-6-7
_audit_author_name ''

_cell_length_a    11.803
_cell_length_b    10.278
_cell_length_c    9.989
_cell_angle_alpha 90
_cell_angle_beta  90
_cell_angle_gamma 90
_cell_volume      32718

_symmetry_cell_setting          orthorhombic
_symmetry_space_group_name_Hall '-C 2 2c'
_symmetry_space_group_name_H-M  'C c c m'
_symmetry_Int_Tables_number     66

loop_
_symmetry_equiv_pos_as_xyz
 'x,y,z'
 '-x,-y,z'
 '-x,y,-z+1/2'
 'x,-y,-z+1/2'
 '-x,-y,-z'
 'x,y,-z'
 'x,-y,z+1/2'
 '-x,y,z+1/2'
 'x+1/2,y+1/2,z'
 '-x+1/2,-y+1/2,z'
 '-x+1/2,y+1/2,-z+1/2'
 'x+1/2,-y+1/2,-z+1/2'
 '-x+1/2,-y+1/2,-z'
 'x+1/2,y+1/2,-z'
 'x+1/2,-y+1/2,z+1/2'
 '-x+1/2,y+1/2,z+1/2'

loop_
_atom_site_label
_atom_site_type_symbol
_atom_site_fract_x
_atom_site_fract_y
_atom_site_fract_z
_atom_site_charge
O        O      0.421000000000     0.090500000000     0.157100000000     0     
O        O      0.242500000000     0.081300000000     0.000000000000     0     
O        O      0.229300000000     0.000000000000     0.250000000000     0     
O        O      0.250000000000     0.250000000000     0.198200000000     0     
T        Si     0.285200000000     0.105900000000     0.150900000000     0     
T        Si     0.000000000000     0.500000000000     0.250000000000     0     


