data_zeolite

_audit_creation_method RASPA-1.0
_audit_creation_date 2021-6-7
_audit_author_name ''

_cell_length_a    9.89
_cell_length_b    14.064
_cell_length_c    14.046
_cell_angle_alpha 90
_cell_angle_beta  90
_cell_angle_gamma 90
_cell_volume      23444.4

_symmetry_cell_setting          orthorhombic
_symmetry_space_group_name_Hall '-C 2c 2'
_symmetry_space_group_name_H-M  'C m c m'
_symmetry_Int_Tables_number     63

loop_
_symmetry_equiv_pos_as_xyz
 'x,y,z'
 '-x,-y,z+1/2'
 '-x,y,-z+1/2'
 'x,-y,-z'
 '-x,-y,-z'
 'x,y,-z+1/2'
 'x,-y,z+1/2'
 '-x,y,z'
 'x+1/2,y+1/2,z'
 '-x+1/2,-y+1/2,z+1/2'
 '-x+1/2,y+1/2,-z+1/2'
 'x+1/2,-y+1/2,-z'
 '-x+1/2,-y+1/2,-z'
 'x+1/2,y+1/2,-z+1/2'
 'x+1/2,-y+1/2,z+1/2'
 '-x+1/2,y+1/2,z'

loop_
_atom_site_label
_atom_site_type_symbol
_atom_site_fract_x
_atom_site_fract_y
_atom_site_fract_z
_atom_site_charge
O        O      0.000000000000     0.111500000000     0.951600000000     0     
O        O      0.179300000000     0.169400000000     0.077300000000     0     
O        O      0.202100000000     0.000000000000     0.000000000000     0     
O        O      0.247300000000     0.152700000000     0.897100000000     0     
O        O      0.189100000000     0.240800000000     0.250000000000     0     
O        O      0.000000000000     0.296600000000     0.130900000000     0     
T        Si     0.157000000000     0.108400000000     0.981600000000     0     
T        Si     0.155300000000     0.263500000000     0.140200000000     0     


