data_zeolite

_audit_creation_method RASPA-1.0
_audit_creation_date 2021-6-7
_audit_author_name ''

_cell_length_a    9.98
_cell_length_b    7.514
_cell_length_c    9.369
_cell_angle_alpha 90
_cell_angle_beta  90
_cell_angle_gamma 90
_cell_volume      25292.8

_symmetry_cell_setting          orthorhombic
_symmetry_space_group_name_Hall '-P 2a 2a'
_symmetry_space_group_name_H-M  'P m m a'
_symmetry_Int_Tables_number     51

loop_
_symmetry_equiv_pos_as_xyz
 'x,y,z'
 '-x+1/2,-y,z'
 '-x,y,-z'
 'x+1/2,-y,-z'
 '-x,-y,-z'
 'x+1/2,y,-z'
 'x,-y,z'
 '-x+1/2,y,z'

loop_
_atom_site_label
_atom_site_type_symbol
_atom_site_fract_x
_atom_site_fract_y
_atom_site_fract_z
_atom_site_charge
O        O      0.066500000000     0.325100000000     0.232200000000     0     
O        O      0.250000000000     0.228100000000     0.418000000000     0     
O        O      0.065800000000     0.000000000000     0.335500000000     0     
O        O      0.000000000000     0.269600000000     0.500000000000     0     
O        O      0.000000000000     0.500000000000     0.000000000000     0     
O        O      0.250000000000     0.500000000000     0.087900000000     0     
T        Si     0.095700000000     0.205700000000     0.371500000000     0     
T        Si     0.095700000000     0.500000000000     0.138000000000     0     


