data_zeolite

_audit_creation_method RASPA-1.0
_audit_creation_date 2021-6-6
_audit_author_name ''

_cell_length_a    5.256
_cell_length_b    22.031
_cell_length_c    11.384
_cell_angle_alpha 90
_cell_angle_beta  90
_cell_angle_gamma 90
_cell_volume      39546.3

_symmetry_cell_setting          orthorhombic
_symmetry_space_group_name_Hall 'P 2 2ab -1ab'
_symmetry_space_group_name_H-M  'P m m n'
_symmetry_Int_Tables_number     59

loop_
_symmetry_equiv_pos_as_xyz
 'x,y,z'
 '-x,-y,z'
 '-x+1/2,y+1/2,-z'
 'x+1/2,-y+1/2,-z'
 '-x+1/2,-y+1/2,-z'
 'x+1/2,y+1/2,-z'
 'x,-y,z'
 '-x,y,z'

loop_
_atom_site_label
_atom_site_type_symbol
_atom_site_fract_x
_atom_site_fract_y
_atom_site_fract_z
_atom_site_charge
O        O      0.000000000000     0.173900000000     0.865100000000     0     
O        O      0.750000000000     0.250000000000     0.000000000000     0     
O        O      0.000000000000     0.158700000000     0.093800000000     0     
O        O      0.750000000000     0.138500000000     0.677500000000     0     
O        O      0.000000000000     0.241800000000     0.675000000000     0     
O        O      0.000000000000     0.059700000000     0.222500000000     0     
O        O      0.750000000000     0.156100000000     0.293800000000     0     
O        O      0.500000000000     0.175100000000     0.490300000000     0     
O        O      0.500000000000     0.059600000000     0.548800000000     0     
O        O      0.250000000000     0.000000000000     0.385600000000     0     
T        Si     0.000000000000     0.208300000000     0.989900000000     0     
T        Si     0.000000000000     0.173300000000     0.723700000000     0     
T        Si     0.000000000000     0.132800000000     0.225900000000     0     
T        Si     0.500000000000     0.186400000000     0.350600000000     0     
T        Si     0.500000000000     0.128000000000     0.598400000000     0     
T        Si     0.500000000000     0.000000000000     0.467100000000     0     
T        Si     0.000000000000     0.000000000000     0.304100000000     0     


