data_zeolite

_audit_creation_method RASPA-1.0
_audit_creation_date 2021-6-7
_audit_author_name ''

_cell_length_a    19.4083
_cell_length_b    15.9011
_cell_length_c    17.9763
_cell_angle_alpha 90
_cell_angle_beta  90
_cell_angle_gamma 90
_cell_volume      44381.6

_symmetry_cell_setting          orthorhombic
_symmetry_space_group_name_Hall '-C 2ac 2'
_symmetry_space_group_name_H-M  'C m c a'
_symmetry_Int_Tables_number     64

loop_
_symmetry_equiv_pos_as_xyz
 'x,y,z'
 '-x,-y+1/2,z+1/2'
 '-x,y+1/2,-z+1/2'
 'x,-y,-z'
 '-x,-y,-z'
 'x,y+1/2,-z+1/2'
 'x,-y+1/2,z+1/2'
 '-x,y,z'
 'x+1/2,y+1/2,z'
 '-x+1/2,-y,z+1/2'
 '-x+1/2,y,-z+1/2'
 'x+1/2,-y+1/2,-z'
 '-x+1/2,-y+1/2,-z'
 'x+1/2,y,-z+1/2'
 'x+1/2,-y,z+1/2'
 '-x+1/2,y+1/2,z'

loop_
_atom_site_label
_atom_site_type_symbol
_atom_site_fract_x
_atom_site_fract_y
_atom_site_fract_z
_atom_site_charge
T        Si     0.418440000000     0.150540000000     0.430310000000     0     
T        Si     0.230210000000     0.076840000000     0.602690000000     0     
T        Si     0.174380000000     0.208920000000     0.500640000000     0     
T        Si     0.194170000000     0.108810000000     0.356440000000     0     
T        Si     0.335270000000     0.174800000000     0.293470000000     0     
T        Si     0.250000000000     0.326380000000     0.250000000000     0     
T        Si     0.342720000000     0.000000000000     0.500000000000     0     
O        O      0.403220000000     0.175170000000     0.344910000000     0     
O        O      0.381350000000     0.218340000000     0.483460000000     0     
O        O      0.390120000000     0.057090000000     0.446590000000     0     
O        O      0.500000000000     0.153090000000     0.445880000000     0     
O        O      0.294190000000     0.937610000000     0.452820000000     0     
O        O      0.174680000000     0.139780000000     0.566150000000     0     
O        O      0.192760000000     0.988530000000     0.619120000000     0     
O        O      0.261930000000     0.114960000000     0.678220000000     0     
O        O      0.183630000000     0.268380000000     0.234070000000     0     
O        O      0.160340000000     0.165120000000     0.421300000000     0     
O        O      0.250000000000     0.250000000000     0.500000000000     0     
O        O      0.151900000000     0.118560000000     0.279770000000     0     
O        O      0.272570000000     0.137360000000     0.341820000000     0     


