data_zeolite

_audit_creation_method RASPA-1.0
_audit_creation_date 2021-6-7
_audit_author_name ''

_cell_length_a    7.557
_cell_length_b    18.715
_cell_length_c    14.099
_cell_angle_alpha 90
_cell_angle_beta  90
_cell_angle_gamma 90
_cell_volume      31904.2

_symmetry_cell_setting          orthorhombic
_symmetry_space_group_name_Hall '-C 2c 2'
_symmetry_space_group_name_H-M  'C m c m'
_symmetry_Int_Tables_number     63

loop_
_symmetry_equiv_pos_as_xyz
 'x,y,z'
 '-x,-y,z+1/2'
 '-x,y,-z+1/2'
 'x,-y,-z'
 '-x,-y,-z'
 'x,y,-z+1/2'
 'x,-y,z+1/2'
 '-x,y,z'
 'x+1/2,y+1/2,z'
 '-x+1/2,-y+1/2,z+1/2'
 '-x+1/2,y+1/2,-z+1/2'
 'x+1/2,-y+1/2,-z'
 '-x+1/2,-y+1/2,-z'
 'x+1/2,y+1/2,-z+1/2'
 'x+1/2,-y+1/2,z+1/2'
 '-x+1/2,y+1/2,z'

loop_
_atom_site_label
_atom_site_type_symbol
_atom_site_fract_x
_atom_site_fract_y
_atom_site_fract_z
_atom_site_charge
O        O      0.250000000000     0.250000000000     0.000000000000     0     
O        O      0.174400000000     0.115700000000     0.001600000000     0     
O        O      0.500000000000     0.155500000000     0.042800000000     0     
O        O      0.239000000000     0.190300000000     0.160000000000     0     
O        O      0.327700000000     0.311800000000     0.250000000000     0     
O        O      0.000000000000     0.265400000000     0.250000000000     0     
O        O      0.000000000000     0.000000000000     0.500000000000     0     
O        O      0.000000000000     0.087500000000     0.656500000000     0     
T        Si     0.294100000000     0.175800000000     0.051600000000     0     
T        Si     0.204800000000     0.241500000000     0.250000000000     0     
T        Si     0.000000000000     0.079500000000     0.542900000000     0     
T        Si     0.000000000000     0.862600000000     0.250000000000     0     


