data_zeolite

_audit_creation_method RASPA-1.0
_audit_creation_date 2021-6-7
_audit_author_name ''

_cell_length_a    27.845
_cell_length_b    20.015
_cell_length_c    19.596
_cell_angle_alpha 90
_cell_angle_beta  93.2
_cell_angle_gamma 90
_cell_volume      43616.7

_symmetry_cell_setting          monoclinic
_symmetry_space_group_name_Hall '-C 2y'
_symmetry_space_group_name_H-M  'C 1 2/m 1'
_symmetry_Int_Tables_number     12

loop_
_symmetry_equiv_pos_as_xyz
 'x,y,z'
 '-x,y,-z'
 '-x,-y,-z'
 'x,-y,z'
 'x+1/2,y+1/2,z'
 '-x+1/2,y+1/2,-z'
 '-x+1/2,-y+1/2,-z'
 'x+1/2,-y+1/2,z'

loop_
_atom_site_label
_atom_site_type_symbol
_atom_site_fract_x
_atom_site_fract_y
_atom_site_fract_z
_atom_site_charge
O        O      0.044700000000     0.091200000000     0.898800000000     0     
O        O      0.087400000000     0.204400000000     0.934600000000     0     
O        O      0.135500000000     0.110300000000     0.874700000000     0     
O        O      0.110200000000     0.093400000000     0.000600000000     0     
O        O      0.122200000000     0.199000000000     0.638100000000     0     
O        O      0.127200000000     0.245800000000     0.762800000000     0     
O        O      0.117200000000     0.116900000000     0.741900000000     0     
O        O      0.045000000000     0.197900000000     0.710400000000     0     
O        O      0.049300000000     0.094200000000     0.098900000000     0     
O        O      0.115000000000     0.000000000000     0.095200000000     0     
O        O      0.140500000000     0.122800000000     0.126300000000     0     
O        O      0.202600000000     0.078000000000     0.791400000000     0     
O        O      0.127500000000     0.000000000000     0.802200000000     0     
O        O      0.139900000000     0.300600000000     0.883400000000     0     
O        O      0.116000000000     0.306800000000     0.011100000000     0     
O        O      0.050700000000     0.323400000000     0.910200000000     0     
O        O      0.207200000000     0.206600000000     0.173600000000     0     
O        O      0.297500000000     0.177300000000     0.208500000000     0     
O        O      0.237200000000     0.202400000000     0.303100000000     0     
O        O      0.266400000000     0.299400000000     0.225000000000     0     
O        O      0.042300000000     0.310900000000     0.089300000000     0     
O        O      0.995500000000     0.251200000000     0.185000000000     0     
O        O      0.003800000000     0.382400000000     0.185400000000     0     
O        O      0.121900000000     0.251500000000     0.133000000000     0     
O        O      0.132200000000     0.181300000000     0.245500000000     0     
O        O      0.118900000000     0.382600000000     0.121100000000     0     
O        O      0.007300000000     0.000000000000     0.167600000000     0     
O        O      0.007700000000     0.123900000000     0.212200000000     0     
O        O      0.121600000000     0.402700000000     0.643400000000     0     
O        O      0.040100000000     0.417000000000     0.703900000000     0     
O        O      0.116700000000     0.376000000000     0.775300000000     0     
O        O      0.111500000000     0.500000000000     0.731300000000     0     
O        O      0.133800000000     0.422800000000     0.248700000000     0     
O        O      0.157200000000     0.500000000000     0.147500000000     0     
O        O      0.207100000000     0.391400000000     0.175600000000     0     
O        O      0.237700000000     0.396000000000     0.304500000000     0     
O        O      0.169400000000     0.298900000000     0.445800000000     0     
O        O      0.220600000000     0.408200000000     0.434500000000     0     
O        O      0.148300000000     0.406000000000     0.515700000000     0     
O        O      0.132000000000     0.402300000000     0.381300000000     0     
O        O      0.052600000000     0.392100000000     0.303600000000     0     
O        O      0.120100000000     0.301700000000     0.294600000000     0     
O        O      0.191800000000     0.118700000000     0.602700000000     0     
O        O      0.228800000000     0.000000000000     0.626100000000     0     
O        O      0.019900000000     0.500000000000     0.240800000000     0     
O        O      0.049200000000     0.214200000000     0.293600000000     0     
O        O      0.211200000000     0.379000000000     0.616900000000     0     
O        O      0.284000000000     0.312800000000     0.570200000000     0     
O        O      0.204400000000     0.248900000000     0.599200000000     0     
O        O      0.144200000000     0.191000000000     0.510300000000     0     
O        O      0.126600000000     0.199600000000     0.377400000000     0     
O        O      0.176500000000     0.500000000000     0.602700000000     0     
T        Si     0.102600000000     0.190000000000     0.713300000000     0     
T        Si     0.997800000000     0.316900000000     0.138100000000     0     
T        Si     0.150500000000     0.190200000000     0.169500000000     0     
T        Si     0.094300000000     0.125000000000     0.927300000000     0     
T        Si     0.100000000000     0.312900000000     0.088500000000     0     
T        Si     0.004800000000     0.077400000000     0.145100000000     0     
T        Si     0.097700000000     0.423600000000     0.713300000000     0     
T        Si     0.154100000000     0.423900000000     0.173400000000     0     
T        Si     0.103600000000     0.077600000000     0.080100000000     0     
T        Si     0.252300000000     0.377200000000     0.228500000000     0     
T        Si     0.145700000000     0.076400000000     0.802500000000     0     
T        Si     0.167500000000     0.379200000000     0.444700000000     0     
T        Si     0.109800000000     0.379700000000     0.307300000000     0     
T        Si     0.240800000000     0.078500000000     0.622100000000     0     
T        Si     0.008800000000     0.422700000000     0.256400000000     0     
T        Si     0.002100000000     0.196900000000     0.245400000000     0     
T        Si     0.240200000000     0.309400000000     0.620400000000     0     
T        Si     0.146300000000     0.311500000000     0.803000000000     0     
T        Si     0.163800000000     0.219100000000     0.440000000000     0     
T        Si     0.106500000000     0.224000000000     0.302900000000     0     
T        Si     0.164000000000     0.421800000000     0.594300000000     0     
T        Si     0.098700000000     0.283300000000     0.935100000000     0     
T        Si     0.165800000000     0.189600000000     0.588400000000     0     
T        Si     0.251800000000     0.221700000000     0.227200000000     0     


