data_zeolite

_audit_creation_method RASPA-1.0
_audit_creation_date 2021-6-7
_audit_author_name ''

_cell_length_a    31.167
_cell_length_b    31.167
_cell_length_c    7.601
_cell_angle_alpha 90
_cell_angle_beta  90
_cell_angle_gamma 120
_cell_volume      25577.1

_symmetry_cell_setting          hexagonal
_symmetry_space_group_name_Hall '-P 6c 2c'
_symmetry_space_group_name_H-M  'P 63/m m c'
_symmetry_Int_Tables_number     194

loop_
_symmetry_equiv_pos_as_xyz
 'x,y,z'
 '-y,x-y,z'
 '-x+y,-x,z'
 '-x,-y,z+1/2'
 'y,-x+y,z+1/2'
 'x-y,x,z+1/2'
 'y,x,-z'
 'x-y,-y,-z'
 '-x,-x+y,-z'
 '-y,-x,-z+1/2'
 '-x+y,y,-z+1/2'
 'x,x-y,-z+1/2'
 '-x,-y,-z'
 'y,-x+y,-z'
 'x-y,x,-z'
 'x,y,-z+1/2'
 '-y,x-y,-z+1/2'
 '-x+y,-x,-z+1/2'
 '-y,-x,z'
 '-x+y,y,z'
 'x,x-y,z'
 'y,x,z+1/2'
 'x-y,-y,z+1/2'
 '-x,-x+y,z+1/2'

loop_
_atom_site_label
_atom_site_type_symbol
_atom_site_fract_x
_atom_site_fract_y
_atom_site_fract_z
_atom_site_charge
O        O      0.000000000000     0.417700000000     0.500000000000     0     
O        O      0.094100000000     0.487000000000     0.478500000000     0     
O        O      0.070000000000     0.396900000000     0.577100000000     0     
O        O      0.056200000000     0.414000000000     0.250000000000     0     
O        O      0.184500000000     0.512100000000     0.577000000000     0     
O        O      0.248600000000     0.497200000000     0.750000000000     0     
O        O      0.153800000000     0.428800000000     0.750000000000     0     
O        O      0.167100000000     0.526600000000     0.250000000000     0     
O        O      0.162100000000     0.581000000000     0.504500000000     0     
O        O      0.000000000000     0.162600000000     0.500000000000     0     
O        O      0.056000000000     0.222900000000     0.250000000000     0     
O        O      0.094500000000     0.189100000000     0.481200000000     0     
O        O      0.068400000000     0.253800000000     0.577000000000     0     
O        O      0.086400000000     0.333900000000     0.750000000000     0     
O        O      0.152300000000     0.304600000000     0.750000000000     0     
T        Si     0.055000000000     0.429000000000     0.451900000000     0     
T        Si     0.152000000000     0.526700000000     0.452500000000     0     
T        Si     0.054700000000     0.207000000000     0.452300000000     0     
T        Si     0.192800000000     0.487300000000     0.750000000000     0     
T        Si     0.095300000000     0.389400000000     0.750000000000     0     
T        Si     0.094000000000     0.286500000000     0.750000000000     0     


